8W5
  CCTOOLS-0919241035

 65 69  0  0  1  0  0  0  0  0999 V2000
   -5.0310    4.7010   -1.0990 C   0  0  0  0  0
   -4.8840    3.3900   -0.3240 C   0  0  0  0  0
   -3.8420    2.5050   -1.0110 C   0  0  0  0  0
   -2.5330    0.1680    1.4490 C   0  0  0  0  0
   -1.1130    0.4310    2.0210 C   0  0  0  0  0
   -0.2210    0.3750    0.7760 C   0  0  0  0  0
    1.2450    0.0680    1.0260 C   0  0  0  0  0
    1.8720    1.1840    1.8650 C   0  0  0  0  0
    3.3400    0.8530    2.1490 C   0  0  0  0  0
    4.0360    0.6120    0.8230 C   0  0  0  0  0
    5.2430    0.1740   -1.7240 C   0  0  0  0  0
    4.1260   -0.4750   -1.4340 C   0  0  0  0  0
    3.4150   -0.3680   -0.1290 C   0  0  0  0  0
   -0.2100   -0.8490   -1.4050 C   0  0  0  0  0
   -3.1050   -1.9040    0.0570 C   0  0  0  0  0
   -4.4570   -1.9520   -0.6050 C   0  0  0  0  0
   -0.4500   -2.1360    0.7300 C   0  0  0  0  0
   -3.6950    1.1940   -0.2350 C   0  0  0  0  0
   -3.0930    1.4370    1.0540 O   0  0  0  0  0
    5.1560    1.2690    0.5550 C   0  0  0  0  0
    5.8470    1.0760   -0.7290 C   0  0  0  0  0
    6.8950    1.6480   -0.9630 O   0  0  0  0  0
    1.9380   -0.0260   -0.3420 C   0  0  0  0  0
    1.3040   -1.0700   -1.2560 C   0  0  0  0  0
   -0.8220   -0.8360    0.0140 C   0  0  0  0  0
   -2.3380   -0.6080    0.1130 C   0  0  0  0  0
   -2.7700    0.3140   -0.9070 O   0  0  0  0  0
   -2.6340   -2.9050    0.5430 O   0  0  0  0  0
   -4.9770   -3.2810   -0.5310 O   0  0  0  0  0
    1.5340   -2.3700   -0.7100 O   0  0  0  0  0
    3.4430   -1.7460    0.5350 C   0  0  0  0  0
   -4.0720    5.2190   -1.1220 H   0  0  0  0  0
   -5.3520    4.4860   -2.1190 H   0  0  0  0  0
   -5.7730    5.3310   -0.6100 H   0  0  0  0  0
   -4.5630    3.6050    0.6950 H   0  0  0  0  0
   -5.8430    2.8720   -0.3010 H   0  0  0  0  0
   -4.1630    2.2900   -2.0300 H   0  0  0  0  0
   -2.8830    3.0230   -1.0330 H   0  0  0  0  0
   -3.1710   -0.3670    2.1520 H   0  0  0  0  0
   -1.0620    1.4150    2.4880 H   0  0  0  0  0
   -0.8350   -0.3460    2.7330 H   0  0  0  0  0
   -0.3330    1.2880    0.1910 H   0  0  0  0  0
    1.3370   -0.8830    1.5510 H   0  0  0  0  0
    1.8110    2.1250    1.3190 H   0  0  0  0  0
    1.3320    1.2750    2.8080 H   0  0  0  0  0
    3.8120    1.6890    2.6660 H   0  0  0  0  0
    3.4030   -0.0430    2.7660 H   0  0  0  0  0
    5.7090    0.0430   -2.6890 H   0  0  0  0  0
    3.7050   -1.1210   -2.1890 H   0  0  0  0  0
   -0.3720    0.1140   -1.8890 H   0  0  0  0  0
   -0.6640   -1.6430   -1.9980 H   0  0  0  0  0
   -5.1350   -1.2670   -0.0970 H   0  0  0  0  0
   -4.3610   -1.6580   -1.6510 H   0  0  0  0  0
   -1.0070   -2.2080    1.6640 H   0  0  0  0  0
   -0.6970   -2.9850    0.0930 H   0  0  0  0  0
    0.6190   -2.1400    0.9430 H   0  0  0  0  0
   -4.6660    0.7130   -0.1160 H   0  0  0  0  0
    5.5640    1.9510    1.2860 H   0  0  0  0  0
    1.8610    0.9480   -0.8260 H   0  0  0  0  0
    1.7700   -1.0120   -2.2400 H   0  0  0  0  0
   -5.8480   -3.3860   -0.9380 H   0  0  0  0  0
    1.1600   -3.0900   -1.2360 H   0  0  0  0  0
    2.6140   -1.8280    1.2380 H   0  0  0  0  0
    3.3490   -2.5190   -0.2280 H   0  0  0  0  0
    4.3850   -1.8740    1.0670 H   0  0  0  0  0
  1  2  1  0  0  0
  1 32  1  0  0  0
  1 33  1  0  0  0
  1 34  1  0  0  0
  2 35  1  0  0  0
  2 36  1  0  0  0
  3  2  1  0  0  0
  3 18  1  0  0  0
  3 37  1  0  0  0
  3 38  1  0  0  0
  4 19  1  0  0  0
  4 39  1  0  0  0
  5  4  1  0  0  0
  5 40  1  0  0  0
  5 41  1  0  0  0
  6 25  1  0  0  0
  6  5  1  0  0  0
  6 42  1  0  0  0
  7  6  1  0  0  0
  7 43  1  0  0  0
  8  7  1  0  0  0
  8 44  1  0  0  0
  8 45  1  0  0  0
  9  8  1  0  0  0
  9 46  1  0  0  0
  9 47  1  0  0  0
 10  9  1  0  0  0
 10 13  1  0  0  0
 11 12  2  0  0  0
 11 48  1  0  0  0
 12 13  1  0  0  0
 12 49  1  0  0  0
 13 23  1  0  0  0
 14 25  1  0  0  0
 14 50  1  0  0  0
 14 51  1  0  0  0
 15 16  1  0  0  0
 15 28  2  0  0  0
 16 29  1  0  0  0
 16 52  1  0  0  0
 16 53  1  0  0  0
 17 54  1  0  0  0
 17 55  1  0  0  0
 17 56  1  0  0  0
 18 57  1  0  0  0
 19 18  1  0  0  0
 20 10  2  0  0  0
 20 58  1  0  0  0
 21 11  1  0  0  0
 21 20  1  0  0  0
 22 21  2  0  0  0
 23  7  1  0  0  0
 23 24  1  0  0  0
 23 59  1  0  0  0
 24 14  1  0  0  0
 24 60  1  0  0  0
 25 17  1  0  0  0
 25 26  1  0  0  0
 26 27  1  0  0  0
 26  4  1  0  0  0
 26 15  1  0  0  0
 27 18  1  0  0  0
 29 61  1  0  0  0
 30 24  1  0  0  0
 30 62  1  0  0  0
 31 13  1  0  0  0
 31 63  1  0  0  0
 31 64  1  0  0  0
 31 65  1  0  0  0
M  END
$$$$
