478
  CCTOOLS-0919241030

 70 72  0  0  1  0  0  0  0  0999 V2000
    6.0970    0.6990   -0.4490 C   0  0  0  0  0
    5.9420    0.6870   -2.8820 C   0  0  0  0  0
    3.0270   -0.2000   -0.8410 C   0  0  0  0  0
    5.2630    0.1230   -1.6100 C   0  0  0  0  0
    0.7990   -0.6810    0.0200 C   0  0  0  0  0
   -0.6240   -0.4320   -0.4840 C   0  0  0  0  0
    0.8790   -0.3440    1.5100 C   0  0  0  0  0
    2.2450   -0.7040    2.0350 C   0  0  0  0  0
    3.2640    0.2290    2.0060 C   0  0  0  0  0
    2.4770   -1.9660    2.5500 C   0  0  0  0  0
    4.5170   -0.1020    2.4870 C   0  0  0  0  0
    3.7300   -2.2960    3.0310 C   0  0  0  0  0
    4.7510   -1.3650    2.9970 C   0  0  0  0  0
   -1.5850   -1.4040    0.2030 C   0  0  0  0  0
   -3.2430   -1.6990   -1.6950 C   0  0  0  0  0
   -3.6190   -3.1810   -1.6440 C   0  0  0  0  0
   -3.8860    1.2490    0.3920 C   0  0  0  0  0
   -4.4940    1.9190   -0.6540 C   0  0  0  0  0
   -4.3290    3.2830   -0.7910 C   0  0  0  0  0
   -3.5520    3.9820    0.1240 C   0  0  0  0  0
   -2.9430    3.3060    1.1740 C   0  0  0  0  0
   -3.1120    1.9410    1.3040 C   0  0  0  0  0
   -4.9140   -3.3510   -0.8480 C   0  0  0  0  0
   -3.8220   -3.7050   -3.0670 C   0  0  0  0  0
    7.3560    1.0500   -2.3610 C   0  0  0  0  0
    1.7350    0.1660   -0.7230 N   0  0  0  0  0
   -2.9330   -1.2260   -0.3440 N   0  0  0  0  0
   -3.3830    5.3620   -0.0110 N   0  0  0  0  0
    3.8880    0.5790   -1.5240 O   0  0  0  0  0
    3.4150   -1.2320   -0.3310 O   0  0  0  0  0
   -1.0080    0.9110   -0.1820 O   0  0  0  0  0
   -3.8120   -0.7980    1.9220 O   0  0  0  0  0
   -5.3460   -0.8030   -0.0510 O   0  0  0  0  0
    7.1070    1.5430   -1.0270 O   0  0  0  0  0
   -4.1050   -0.4910    0.5660 S   0  0  0  0  0
    5.4570    1.2850    0.2110 H   0  0  0  0  0
    6.5660   -0.1120    0.1080 H   0  0  0  0  0
    5.9990   -0.0720   -3.6620 H   0  0  0  0  0
    5.4200    1.5740   -3.2410 H   0  0  0  0  0
    5.3060   -0.9670   -1.6060 H   0  0  0  0  0
    1.0600   -1.7290   -0.1300 H   0  0  0  0  0
   -0.6600   -0.5870   -1.5620 H   0  0  0  0  0
    0.7050    0.7230    1.6510 H   0  0  0  0  0
    0.1210   -0.9100    2.0520 H   0  0  0  0  0
    3.0820    1.2160    1.6070 H   0  0  0  0  0
    1.6790   -2.6930    2.5770 H   0  0  0  0  0
    5.3140    0.6270    2.4640 H   0  0  0  0  0
    3.9110   -3.2820    3.4340 H   0  0  0  0  0
    5.7300   -1.6240    3.3730 H   0  0  0  0  0
   -1.2540   -2.4280    0.0270 H   0  0  0  0  0
   -1.5990   -1.2060    1.2750 H   0  0  0  0  0
   -2.3710   -1.5670   -2.3360 H   0  0  0  0  0
   -4.0790   -1.1260   -2.0970 H   0  0  0  0  0
   -2.8190   -3.7420   -1.1600 H   0  0  0  0  0
   -5.0970    1.3750   -1.3660 H   0  0  0  0  0
   -4.8030    3.8060   -1.6080 H   0  0  0  0  0
   -2.3380    3.8460    1.8870 H   0  0  0  0  0
   -2.6390    1.4150    2.1200 H   0  0  0  0  0
   -5.7140   -2.7900   -1.3310 H   0  0  0  0  0
   -5.1820   -4.4070   -0.8110 H   0  0  0  0  0
   -4.7700   -2.9780    0.1660 H   0  0  0  0  0
   -2.8980   -3.5840   -3.6340 H   0  0  0  0  0
   -4.0890   -4.7610   -3.0300 H   0  0  0  0  0
   -4.6210   -3.1450   -3.5500 H   0  0  0  0  0
    7.9930    0.1660   -2.3310 H   0  0  0  0  0
    7.8050    1.8270   -2.9800 H   0  0  0  0  0
    1.4260    0.9900   -1.1300 H   0  0  0  0  0
   -3.8080    5.8330   -0.7440 H   0  0  0  0  0
   -2.8400    5.8490    0.6290 H   0  0  0  0  0
   -0.9330    1.1400    0.7540 H   0  0  0  0  0
  1  4  1  0  0  0
  1 34  1  0  0  0
  1 36  1  0  0  0
  1 37  1  0  0  0
  2  4  1  0  0  0
  2 25  1  0  0  0
  2 38  1  0  0  0
  2 39  1  0  0  0
  3 26  1  0  0  0
  3 29  1  0  0  0
  3 30  2  0  0  0
  4 29  1  0  0  0
  4 40  1  0  0  0
  5  6  1  0  0  0
  5  7  1  0  0  0
  5 26  1  0  0  0
  5 41  1  0  0  0
  6 14  1  0  0  0
  6 31  1  0  0  0
  6 42  1  0  0  0
  7  8  1  0  0  0
  7 43  1  0  0  0
  7 44  1  0  0  0
  8  9  2  0  0  0
  8 10  1  0  0  0
  9 11  1  0  0  0
  9 45  1  0  0  0
 10 12  2  0  0  0
 10 46  1  0  0  0
 11 13  2  0  0  0
 11 47  1  0  0  0
 12 13  1  0  0  0
 12 48  1  0  0  0
 13 49  1  0  0  0
 14 27  1  0  0  0
 14 50  1  0  0  0
 14 51  1  0  0  0
 15 16  1  0  0  0
 15 27  1  0  0  0
 15 52  1  0  0  0
 15 53  1  0  0  0
 16 23  1  0  0  0
 16 24  1  0  0  0
 16 54  1  0  0  0
 17 18  2  0  0  0
 17 22  1  0  0  0
 17 35  1  0  0  0
 18 19  1  0  0  0
 18 55  1  0  0  0
 19 20  2  0  0  0
 19 56  1  0  0  0
 20 21  1  0  0  0
 20 28  1  0  0  0
 21 22  2  0  0  0
 21 57  1  0  0  0
 22 58  1  0  0  0
 23 59  1  0  0  0
 23 60  1  0  0  0
 23 61  1  0  0  0
 24 62  1  0  0  0
 24 63  1  0  0  0
 24 64  1  0  0  0
 25 34  1  0  0  0
 25 65  1  0  0  0
 25 66  1  0  0  0
 26 67  1  0  0  0
 27 35  1  0  0  0
 28 68  1  0  0  0
 28 69  1  0  0  0
 31 70  1  0  0  0
 32 35  2  0  0  0
 33 35  2  0  0  0
M  END
$$$$
