XRD
  CCTOOLS-0919241036

 64 67  0  0  1  0  0  0  0  0999 V2000
   -4.1610   -0.8320    1.4540 C   0  0  0  0  0
   -3.5220   -0.5950    0.1300 C   0  0  0  0  0
   -4.3400    0.2570   -0.7950 C   0  0  0  0  0
   -5.5590    0.6840   -0.4950 C   0  0  0  0  0
   -6.1710    0.3510    0.8000 C   0  0  0  0  0
   -5.3740   -0.4120    1.7780 C   0  0  0  0  0
   -2.1430    0.0500    0.3030 C   0  0  0  0  0
   -0.1360    0.8570   -0.8450 C   0  0  0  0  0
    0.6940   -0.2350   -0.1200 C   0  0  0  0  0
    0.1690   -0.3200    1.2730 C   0  0  0  0  0
   -1.2680   -0.8540    1.1670 C   0  0  0  0  0
    0.6790    1.0680   -2.1260 C   0  0  0  0  0
    2.1450    1.0490   -1.6110 C   0  0  0  0  0
    2.1260    0.2770   -0.2380 C   0  0  0  0  0
   -3.3190   -1.9540   -0.5430 C   0  0  0  0  0
    0.5570   -1.5680   -0.8580 C   0  0  0  0  0
    3.0500    0.3560   -2.6320 C   0  0  0  0  0
    3.0580   -0.9060   -0.2920 C   0  0  0  0  0
    3.8390   -1.3060    0.9330 C   0  0  0  0  0
    3.7210    1.7330    0.7690 C   0  0  0  0  0
    4.2270    2.5860    1.9040 C   0  0  0  0  0
    5.6260    3.1060    1.5680 C   0  0  0  0  0
   -3.7310    0.6530   -2.1270 C   0  0  0  0  0
   -2.3510    1.2610   -1.8580 C   0  0  0  0  0
   -1.5210    0.2830   -1.0830 C   0  0  0  0  0
   -2.2910    1.2890    0.9360 F   0  0  0  0  0
   -7.3030    0.7110    1.0640 O   0  0  0  0  0
   -1.2390   -2.1610    0.5920 O   0  0  0  0  0
    3.1780   -1.5340   -1.3160 O   0  0  0  0  0
    2.5070    1.1670    0.8440 O   0  0  0  0  0
    4.4100    1.5590   -0.2080 O   0  0  0  0  0
    4.9600   -2.6560    0.5170 CL  0  0  0  0  0
   -3.6030   -1.3860    2.1950 H   0  0  0  0  0
   -6.1070    1.2820   -1.2080 H   0  0  0  0  0
   -5.7790   -0.6300    2.7550 H   0  0  0  0  0
   -0.1690    1.7690   -0.2490 H   0  0  0  0  0
    0.7660   -1.0240    1.8530 H   0  0  0  0  0
    0.1960    0.6650    1.7410 H   0  0  0  0  0
   -1.6990   -0.9150    2.1660 H   0  0  0  0  0
    0.5070    0.2550   -2.8310 H   0  0  0  0  0
    0.4400    2.0290   -2.5810 H   0  0  0  0  0
    2.4920    2.0660   -1.4330 H   0  0  0  0  0
   -4.2560   -2.2800   -0.9920 H   0  0  0  0  0
   -2.5560   -1.8660   -1.3170 H   0  0  0  0  0
   -2.9990   -2.6830    0.2010 H   0  0  0  0  0
    1.0940   -1.5150   -1.8050 H   0  0  0  0  0
    0.9760   -2.3670   -0.2470 H   0  0  0  0  0
   -0.4960   -1.7710   -1.0490 H   0  0  0  0  0
    3.1450    0.9830   -3.5180 H   0  0  0  0  0
    4.0350    0.1940   -2.1930 H   0  0  0  0  0
    2.6150   -0.6040   -2.9110 H   0  0  0  0  0
    4.4160   -0.4520    1.2910 H   0  0  0  0  0
    3.1510   -1.6320    1.7130 H   0  0  0  0  0
    3.5520    3.4290    2.0540 H   0  0  0  0  0
    4.2700    1.9890    2.8160 H   0  0  0  0  0
    6.3000    2.2630    1.4190 H   0  0  0  0  0
    5.5830    3.7020    0.6570 H   0  0  0  0  0
    5.9910    3.7220    2.3890 H   0  0  0  0  0
   -3.6280   -0.2280   -2.7610 H   0  0  0  0  0
   -4.3690    1.3870   -2.6190 H   0  0  0  0  0
   -1.8670    1.4740   -2.8110 H   0  0  0  0  0
   -2.4510    2.1850   -1.2880 H   0  0  0  0  0
   -1.4420   -0.6520   -1.6370 H   0  0  0  0  0
   -0.7010   -2.7960    1.0860 H   0  0  0  0  0
  1  6  2  0  0  0
  1 33  1  0  0  0
  2 15  1  0  0  0
  2  1  1  0  0  0
  3  4  2  0  0  0
  3  2  1  0  0  0
  4  5  1  0  0  0
  4 34  1  0  0  0
  5 27  2  0  0  0
  5  6  1  0  0  0
  6 35  1  0  0  0
  7 11  1  0  0  0
  7  2  1  0  0  0
  8  9  1  0  0  0
  8 25  1  0  0  0
  8 36  1  0  0  0
  9 16  1  0  0  0
  9 10  1  0  0  0
 10 11  1  0  0  0
 10 37  1  0  0  0
 10 38  1  0  0  0
 11 28  1  0  0  0
 11 39  1  0  0  0
 12  8  1  0  0  0
 12 40  1  0  0  0
 12 41  1  0  0  0
 13 12  1  0  0  0
 13 14  1  0  0  0
 13 42  1  0  0  0
 14 30  1  0  0  0
 14  9  1  0  0  0
 15 43  1  0  0  0
 15 44  1  0  0  0
 15 45  1  0  0  0
 16 46  1  0  0  0
 16 47  1  0  0  0
 16 48  1  0  0  0
 17 13  1  0  0  0
 17 49  1  0  0  0
 17 50  1  0  0  0
 17 51  1  0  0  0
 18 14  1  0  0  0
 18 19  1  0  0  0
 19 32  1  0  0  0
 19 52  1  0  0  0
 19 53  1  0  0  0
 20 21  1  0  0  0
 20 30  1  0  0  0
 21 22  1  0  0  0
 21 54  1  0  0  0
 21 55  1  0  0  0
 22 56  1  0  0  0
 22 57  1  0  0  0
 22 58  1  0  0  0
 23  3  1  0  0  0
 23 59  1  0  0  0
 23 60  1  0  0  0
 24 25  1  0  0  0
 24 23  1  0  0  0
 24 61  1  0  0  0
 24 62  1  0  0  0
 25  7  1  0  0  0
 25 63  1  0  0  0
 26  7  1  0  0  0
 28 64  1  0  0  0
 29 18  2  0  0  0
 31 20  2  0  0  0
M  END
$$$$
