PDN
  CCTOOLS-0919241031

 52 55  0  0  1  0  0  0  0  0999 V2000
    1.6030   -0.0720   -3.2140 C   0  0  0  0  0
    1.6220   -0.4030   -4.4950 C   0  0  0  0  0
    0.3850   -0.3240   -5.2900 C   0  0  0  0  0
   -0.8600    0.0680   -4.6130 C   0  0  0  0  0
   -0.8580    0.3880   -3.3270 C   0  0  0  0  0
   -2.1690    0.7650   -2.6630 C   0  0  0  0  0
   -2.3230   -0.0630   -1.3820 C   0  0  0  0  0
   -1.0880    0.1310   -0.5050 C   0  0  0  0  0
    0.1430   -0.4360   -1.2330 C   0  0  0  0  0
    0.3820    0.4050   -2.4870 C   0  0  0  0  0
    1.3480   -0.3940   -0.3300 C   0  0  0  0  0
    1.2250   -0.8910    1.1020 C   0  0  0  0  0
   -0.0000   -0.2120    1.6900 C   0  0  0  0  0
   -1.2190   -0.6050    0.8110 C   0  0  0  0  0
   -2.4080   -0.1810    1.6840 C   0  0  0  0  0
   -1.9690   -0.6090    3.1090 C   0  0  0  0  0
   -0.3980   -0.6690    3.0910 C   0  0  0  0  0
    0.1860    1.3060    1.6710 C   0  0  0  0  0
    0.6290    1.8510   -2.0490 C   0  0  0  0  0
    0.1700    0.2530    4.1380 C   0  0  0  0  0
    0.9510   -0.2280    5.0880 C   0  0  0  0  0
    0.3920   -0.5790   -6.4800 O   0  0  0  0  0
    2.4020    0.0290   -0.7400 O   0  0  0  0  0
    0.0470   -2.0080    3.3150 O   0  0  0  0  0
   -0.1210    1.5810    4.1060 O   0  0  0  0  0
    1.4640    0.6040    6.0330 O   0  0  0  0  0
    2.5260   -0.1480   -2.6580 H   0  0  0  0  0
    2.5420   -0.7300   -4.9570 H   0  0  0  0  0
   -1.7850    0.0960   -5.1700 H   0  0  0  0  0
   -2.9960    0.5510   -3.3390 H   0  0  0  0  0
   -2.1610    1.8260   -2.4130 H   0  0  0  0  0
   -2.4240   -1.1170   -1.6400 H   0  0  0  0  0
   -3.2100    0.2650   -0.8400 H   0  0  0  0  0
   -0.9400    1.1940   -0.3150 H   0  0  0  0  0
   -0.0530   -1.4680   -1.5240 H   0  0  0  0  0
    2.1130   -0.6160    1.6710 H   0  0  0  0  0
    1.0940   -1.9730    1.1120 H   0  0  0  0  0
   -1.2370   -1.6820    0.6430 H   0  0  0  0  0
   -2.5560    0.8970    1.6340 H   0  0  0  0  0
   -3.3130   -0.7090    1.3850 H   0  0  0  0  0
   -2.3090    0.1220    3.8410 H   0  0  0  0  0
   -2.3750   -1.5920    3.3460 H   0  0  0  0  0
    0.4200    1.6300    0.6570 H   0  0  0  0  0
   -0.7310    1.7890    2.0050 H   0  0  0  0  0
    1.0040    1.5790    2.3380 H   0  0  0  0  0
    0.8110    2.4700   -2.9280 H   0  0  0  0  0
   -0.2450    2.2240   -1.5170 H   0  0  0  0  0
    1.4980    1.8880   -1.3920 H   0  0  0  0  0
    1.1830   -1.2820    5.1140 H   0  0  0  0  0
   -0.2700   -2.2660    4.1910 H   0  0  0  0  0
    0.3360    1.9860    4.8550 H   0  0  0  0  0
    2.0010    0.0590    6.6240 H   0  0  0  0  0
  1  2  2  0  0  0
  1 10  1  0  0  0
  1 27  1  0  0  0
  2  3  1  0  0  0
  2 28  1  0  0  0
  3  4  1  0  0  0
  3 22  2  0  0  0
  4  5  2  0  0  0
  4 29  1  0  0  0
  5  6  1  0  0  0
  5 10  1  0  0  0
  6  7  1  0  0  0
  6 30  1  0  0  0
  6 31  1  0  0  0
  7  8  1  0  0  0
  7 32  1  0  0  0
  7 33  1  0  0  0
  8  9  1  0  0  0
  8 14  1  0  0  0
  8 34  1  0  0  0
  9 10  1  0  0  0
  9 11  1  0  0  0
  9 35  1  0  0  0
 10 19  1  0  0  0
 11 12  1  0  0  0
 11 23  2  0  0  0
 12 13  1  0  0  0
 12 36  1  0  0  0
 12 37  1  0  0  0
 13 14  1  0  0  0
 13 17  1  0  0  0
 13 18  1  0  0  0
 14 15  1  0  0  0
 14 38  1  0  0  0
 15 16  1  0  0  0
 15 39  1  0  0  0
 15 40  1  0  0  0
 16 17  1  0  0  0
 16 41  1  0  0  0
 16 42  1  0  0  0
 17 20  1  0  0  0
 17 24  1  0  0  0
 18 43  1  0  0  0
 18 44  1  0  0  0
 18 45  1  0  0  0
 19 46  1  0  0  0
 19 47  1  0  0  0
 19 48  1  0  0  0
 20 21  2  0  0  0
 20 25  1  0  0  0
 21 26  1  0  0  0
 21 49  1  0  0  0
 24 50  1  0  0  0
 25 51  1  0  0  0
 26 52  1  0  0  0
M  END
$$$$
