RIT
  CCTOOLS-0919241042

 98101  0  0  1  0  0  0  0  0999 V2000
    8.2140    3.1570    1.6080 C   0  0  0  0  0
    7.6550    2.9660    0.4090 C   0  0  0  0  0
    7.3450    4.5480   -0.3030 S   0  0  0  0  0
    7.9980    5.3080    1.0820 C   0  0  0  0  0
    8.3830    4.4220    1.9360 N   0  0  0  0  0
    7.3440    1.6330   -0.2220 C   0  0  0  0  0
    6.0030    1.2220    0.1520 O   0  0  0  0  0
    5.5670    0.0430   -0.3330 C   0  0  0  0  0
    6.2890   -0.6230   -1.0490 O   0  0  0  0  0
    4.3320   -0.3970   -0.0240 N   0  0  0  0  0
    3.8580   -1.6790   -0.5520 C   0  0  0  0  0
    2.3290   -1.6740   -0.6080 C   0  0  0  0  0
    1.8570   -0.5410   -1.5210 C   0  0  0  0  0
    0.3470   -0.6580   -1.7400 C   0  0  0  0  0
    4.3310   -2.8120    0.3620 C   0  0  0  0  0
    5.8350   -2.8960    0.3210 C   0  0  0  0  0
    6.5920   -2.1670    1.2200 C   0  0  0  0  0
    7.9710   -2.2430    1.1830 C   0  0  0  0  0
    8.5940   -3.0490    0.2480 C   0  0  0  0  0
    7.8370   -3.7780   -0.6500 C   0  0  0  0  0
    6.4570   -3.7050   -0.6100 C   0  0  0  0  0
    1.8040   -1.4770    0.7060 O   0  0  0  0  0
   -0.0950    0.3530   -2.7990 C   0  0  0  0  0
   -1.5580    0.1560   -3.1030 C   0  0  0  0  0
   -2.5140    0.8450   -2.3790 C   0  0  0  0  0
   -3.8550    0.6630   -2.6580 C   0  0  0  0  0
   -4.2420   -0.2070   -3.6610 C   0  0  0  0  0
   -3.2860   -0.8950   -4.3850 C   0  0  0  0  0
   -1.9440   -0.7110   -4.1090 C   0  0  0  0  0
   -0.3510   -0.3830   -0.4810 N   0  0  0  0  0
   -3.5010   -1.4680    1.0750 N   0  0  0  0  0
   -2.2220   -0.7540    1.0940 C   0  0  0  0  0
   -1.4230   -1.1200   -0.1300 C   0  0  0  0  0
   -1.7460   -2.0790   -0.8000 O   0  0  0  0  0
   -1.4390   -1.1430    2.3490 C   0  0  0  0  0
   -1.0200   -2.6110    2.2540 C   0  0  0  0  0
   -0.1920   -0.2630    2.4660 C   0  0  0  0  0
   -4.5630   -0.9670    1.7370 C   0  0  0  0  0
   -5.7390   -1.6240    1.7190 N   0  0  0  0  0
   -6.8930   -1.0790    2.4380 C   0  0  0  0  0
   -4.4590    0.0780    2.3490 O   0  0  0  0  0
   -7.6740   -0.1730    1.5210 C   0  0  0  0  0
   -8.7320   -0.5920    0.8200 C   0  0  0  0  0
   -9.3400    0.7750   -0.1110 S   0  0  0  0  0
   -8.1120    1.7730    0.5350 C   0  0  0  0  0
   -7.3730    1.0980    1.3500 N   0  0  0  0  0
   -7.9230    3.2310    0.2060 C   0  0  0  0  0
   -7.6770    3.3870   -1.2960 C   0  0  0  0  0
   -9.1790    4.0100    0.6000 C   0  0  0  0  0
   -5.8640   -2.8840    0.9820 C   0  0  0  0  0
    8.4990    2.3420    2.2560 H   0  0  0  0  0
    8.0770    6.3770    1.2210 H   0  0  0  0  0
    7.4080    1.7210   -1.3070 H   0  0  0  0  0
    8.0620    0.8900    0.1260 H   0  0  0  0  0
    3.7560    0.1350    0.5470 H   0  0  0  0  0
    4.2580   -1.8300   -1.5540 H   0  0  0  0  0
    1.9770   -2.6280   -1.0000 H   0  0  0  0  0
    2.0830    0.4190   -1.0570 H   0  0  0  0  0
    2.3690   -0.6100   -2.4810 H   0  0  0  0  0
    0.1050   -1.6660   -2.0760 H   0  0  0  0  0
    4.0050   -2.6150    1.3830 H   0  0  0  0  0
    3.9050   -3.7560    0.0200 H   0  0  0  0  0
    6.1050   -1.5380    1.9500 H   0  0  0  0  0
    8.5630   -1.6730    1.8840 H   0  0  0  0  0
    9.6720   -3.1080    0.2180 H   0  0  0  0  0
    8.3240   -4.4070   -1.3810 H   0  0  0  0  0
    5.8660   -4.2780   -1.3090 H   0  0  0  0  0
    2.0460   -0.6280    1.1030 H   0  0  0  0  0
    0.0640    1.3650   -2.4250 H   0  0  0  0  0
    0.4880    0.2060   -3.7080 H   0  0  0  0  0
   -2.2120    1.5240   -1.5960 H   0  0  0  0  0
   -4.6020    1.2010   -2.0920 H   0  0  0  0  0
   -5.2900   -0.3490   -3.8780 H   0  0  0  0  0
   -3.5880   -1.5750   -5.1670 H   0  0  0  0  0
   -1.1980   -1.2450   -4.6770 H   0  0  0  0  0
   -0.0410    0.3290    0.1000 H   0  0  0  0  0
   -3.5830   -2.3020    0.5870 H   0  0  0  0  0
   -2.4060    0.3210    1.1000 H   0  0  0  0  0
   -2.0670   -1.0010    3.2290 H   0  0  0  0  0
   -0.3910   -2.7530    1.3750 H   0  0  0  0  0
   -0.4610   -2.8890    3.1480 H   0  0  0  0  0
   -1.9070   -3.2380    2.1710 H   0  0  0  0  0
    0.3920   -0.5740    3.3330 H   0  0  0  0  0
    0.4120   -0.3680    1.5650 H   0  0  0  0  0
   -0.4920    0.7780    2.5840 H   0  0  0  0  0
   -7.5330   -1.8970    2.7720 H   0  0  0  0  0
   -6.5490   -0.5120    3.3030 H   0  0  0  0  0
   -9.1420   -1.5910    0.8240 H   0  0  0  0  0
   -7.0660    3.6200    0.7560 H   0  0  0  0  0
   -8.5330    2.9980   -1.8470 H   0  0  0  0  0
   -7.5400    4.4420   -1.5350 H   0  0  0  0  0
   -6.7820    2.8320   -1.5780 H   0  0  0  0  0
   -9.3540    3.8990    1.6700 H   0  0  0  0  0
   -9.0430    5.0650    0.3620 H   0  0  0  0  0
  -10.0360    3.6210    0.0490 H   0  0  0  0  0
   -5.6160   -3.7170    1.6400 H   0  0  0  0  0
   -6.8870   -2.9960    0.6230 H   0  0  0  0  0
   -5.1800   -2.8770    0.1320 H   0  0  0  0  0
  1  2  2  0  0  0
  1  5  1  0  0  0
  1 51  1  0  0  0
  2  3  1  0  0  0
  2  6  1  0  0  0
  3  4  1  0  0  0
  4  5  2  0  0  0
  4 52  1  0  0  0
  6  7  1  0  0  0
  6 53  1  0  0  0
  6 54  1  0  0  0
  7  8  1  0  0  0
  8 10  1  0  0  0
  8  9  2  0  0  0
 10 11  1  0  0  0
 10 55  1  0  0  0
 11 12  1  0  0  0
 11 15  1  0  0  0
 11 56  1  0  0  0
 12 13  1  0  0  0
 12 22  1  0  0  0
 12 57  1  0  0  0
 13 14  1  0  0  0
 13 58  1  0  0  0
 13 59  1  0  0  0
 14 23  1  0  0  0
 14 30  1  0  0  0
 14 60  1  0  0  0
 15 16  1  0  0  0
 15 61  1  0  0  0
 15 62  1  0  0  0
 16 17  2  0  0  0
 16 21  1  0  0  0
 17 18  1  0  0  0
 17 63  1  0  0  0
 18 19  2  0  0  0
 18 64  1  0  0  0
 19 20  1  0  0  0
 19 65  1  0  0  0
 20 21  2  0  0  0
 20 66  1  0  0  0
 21 67  1  0  0  0
 22 68  1  0  0  0
 23 24  1  0  0  0
 23 69  1  0  0  0
 23 70  1  0  0  0
 24 25  2  0  0  0
 24 29  1  0  0  0
 25 26  1  0  0  0
 25 71  1  0  0  0
 26 27  2  0  0  0
 26 72  1  0  0  0
 27 28  1  0  0  0
 27 73  1  0  0  0
 28 29  2  0  0  0
 28 74  1  0  0  0
 29 75  1  0  0  0
 30 76  1  0  0  0
 31 38  1  0  0  0
 31 77  1  0  0  0
 32 31  1  0  0  0
 32 35  1  0  0  0
 32 78  1  0  0  0
 33 32  1  0  0  0
 33 30  1  0  0  0
 33 34  2  0  0  0
 35 36  1  0  0  0
 35 37  1  0  0  0
 35 79  1  0  0  0
 36 80  1  0  0  0
 36 81  1  0  0  0
 36 82  1  0  0  0
 37 83  1  0  0  0
 37 84  1  0  0  0
 37 85  1  0  0  0
 38 39  1  0  0  0
 38 41  2  0  0  0
 39 40  1  0  0  0
 39 50  1  0  0  0
 40 42  1  0  0  0
 40 86  1  0  0  0
 40 87  1  0  0  0
 42 43  2  0  0  0
 42 46  1  0  0  0
 43 44  1  0  0  0
 43 88  1  0  0  0
 44 45  1  0  0  0
 45 46  2  0  0  0
 45 47  1  0  0  0
 47 48  1  0  0  0
 47 49  1  0  0  0
 47 89  1  0  0  0
 48 90  1  0  0  0
 48 91  1  0  0  0
 48 92  1  0  0  0
 49 93  1  0  0  0
 49 94  1  0  0  0
 49 95  1  0  0  0
 50 96  1  0  0  0
 50 97  1  0  0  0
 50 98  1  0  0  0
M  END
$$$$
