GW6
  CCTOOLS-0919241042

 66 70  0  0  1  0  0  0  0  0999 V2000
   -2.2530   -0.3120    3.3480 C   0  0  0  0  0
   -1.8360   -1.2620    2.2230 C   0  0  0  0  0
   -0.3110   -1.5470    2.3050 C   0  0  0  0  0
    0.2820   -0.5260    1.3270 C   0  0  0  0  0
    1.6510   -0.8650    0.7660 C   0  0  0  0  0
    2.6820   -0.8960    1.8950 C   0  0  0  0  0
    4.0540   -1.2780    1.3310 C   0  0  0  0  0
    5.0210   -1.1920    2.3380 F   0  0  0  0  0
    4.3910   -0.3070    0.2140 C   0  0  0  0  0
    5.5610    0.3170    0.2350 C   0  0  0  0  0
    5.9140    1.2800   -0.8190 C   0  0  0  0  0
    7.0020    1.8240   -0.8250 O   0  0  0  0  0
    4.9210    1.5690   -1.8680 C   0  0  0  0  0
    3.7630    0.9290   -1.8730 C   0  0  0  0  0
    3.3750   -0.1040   -0.8710 C   0  0  0  0  0
    3.2060   -1.4330   -1.6100 C   0  0  0  0  0
    2.0210    0.2350   -0.2410 C   0  0  0  0  0
    2.1190    1.4590    0.4300 F   0  0  0  0  0
    0.9730    0.3690   -1.3410 C   0  0  0  0  0
    0.9750   -0.8190   -2.1350 O   0  0  0  0  0
   -0.4350    0.5810   -0.7610 C   0  0  0  0  0
   -0.7270   -0.5970    0.1480 C   0  0  0  0  0
   -0.5350   -1.9060   -0.6210 C   0  0  0  0  0
   -2.0830   -0.5960    0.8460 C   0  0  0  0  0
   -2.5570    0.7650    1.0230 O   0  0  0  0  0
   -2.9340    1.4310   -0.0870 C   0  0  0  0  0
   -2.9240    0.8700   -1.1660 O   0  0  0  0  0
   -3.3540    2.8310    0.0060 C   0  0  0  0  0
   -3.7580    3.6190   -1.0350 C   0  0  0  0  0
   -4.0660    4.8760   -0.4930 C   0  0  0  0  0
   -3.8400    4.8020    0.8380 C   0  0  0  0  0
   -3.4170    3.5670    1.1350 O   0  0  0  0  0
   -3.0800   -1.3980    0.0510 C   0  0  0  0  0
   -4.0390   -0.8490   -0.4510 O   0  0  0  0  0
   -2.8600   -3.0850   -0.1470 S   0  0  0  0  0
   -4.3140   -3.4760   -1.1510 C   0  0  0  0  0
   -4.1060   -3.0360   -2.4630 F   0  0  0  0  0
   -1.6390    0.5880    3.3100 H   0  0  0  0  0
   -3.3020   -0.0420    3.2250 H   0  0  0  0  0
   -2.1150   -0.8060    4.3100 H   0  0  0  0  0
   -2.3950   -2.1940    2.2950 H   0  0  0  0  0
    0.0600   -1.3740    3.3150 H   0  0  0  0  0
   -0.0910   -2.5640    1.9810 H   0  0  0  0  0
    0.2920    0.4670    1.7760 H   0  0  0  0  0
    1.6160   -1.8370    0.2740 H   0  0  0  0  0
    2.7420    0.0890    2.3590 H   0  0  0  0  0
    2.3810   -1.6300    2.6430 H   0  0  0  0  0
    4.0210   -2.2940    0.9380 H   0  0  0  0  0
    6.2600    0.1160    1.0340 H   0  0  0  0  0
    5.1380    2.3030   -2.6300 H   0  0  0  0  0
    3.0540    1.1700   -2.6520 H   0  0  0  0  0
    2.5850   -2.1030   -1.0150 H   0  0  0  0  0
    2.7280   -1.2550   -2.5730 H   0  0  0  0  0
    4.1840   -1.8880   -1.7680 H   0  0  0  0  0
    1.2270    1.2200   -1.9730 H   0  0  0  0  0
    0.3330   -0.8100   -2.8580 H   0  0  0  0  0
   -0.4650    1.5080   -0.1890 H   0  0  0  0  0
   -1.1670    0.6170   -1.5680 H   0  0  0  0  0
   -0.8390   -2.7440    0.0070 H   0  0  0  0  0
   -1.1450   -1.8890   -1.5240 H   0  0  0  0  0
    0.5140   -2.0170   -0.8930 H   0  0  0  0  0
   -3.8260    3.3310   -2.0730 H   0  0  0  0  0
   -4.4180    5.7410   -1.0360 H   0  0  0  0  0
   -3.9820    5.6060    1.5460 H   0  0  0  0  0
   -4.4770   -4.5540   -1.1510 H   0  0  0  0  0
   -5.1890   -2.9760   -0.7350 H   0  0  0  0  0
  1  2  1  0  0  0
  1 38  1  0  0  0
  1 39  1  0  0  0
  1 40  1  0  0  0
  2  3  1  0  0  0
  2 24  1  0  0  0
  2 41  1  0  0  0
  3  4  1  0  0  0
  3 42  1  0  0  0
  3 43  1  0  0  0
  4  5  1  0  0  0
  4 22  1  0  0  0
  4 44  1  0  0  0
  5  6  1  0  0  0
  5 17  1  0  0  0
  5 45  1  0  0  0
  6  7  1  0  0  0
  6 46  1  0  0  0
  6 47  1  0  0  0
  7  8  1  0  0  0
  7  9  1  0  0  0
  7 48  1  0  0  0
  9 10  2  0  0  0
  9 15  1  0  0  0
 10 11  1  0  0  0
 10 49  1  0  0  0
 11 12  2  0  0  0
 11 13  1  0  0  0
 13 14  2  0  0  0
 13 50  1  0  0  0
 14 15  1  0  0  0
 14 51  1  0  0  0
 15 16  1  0  0  0
 15 17  1  0  0  0
 16 52  1  0  0  0
 16 53  1  0  0  0
 16 54  1  0  0  0
 17 18  1  0  0  0
 17 19  1  0  0  0
 19 20  1  0  0  0
 19 21  1  0  0  0
 19 55  1  0  0  0
 20 56  1  0  0  0
 21 22  1  0  0  0
 21 57  1  0  0  0
 21 58  1  0  0  0
 22 23  1  0  0  0
 22 24  1  0  0  0
 23 59  1  0  0  0
 23 60  1  0  0  0
 23 61  1  0  0  0
 24 25  1  0  0  0
 24 33  1  0  0  0
 25 26  1  0  0  0
 26 27  2  0  0  0
 26 28  1  0  0  0
 28 29  2  0  0  0
 28 32  1  0  0  0
 29 30  1  0  0  0
 29 62  1  0  0  0
 30 31  2  0  0  0
 30 63  1  0  0  0
 31 32  1  0  0  0
 31 64  1  0  0  0
 33 34  2  0  0  0
 33 35  1  0  0  0
 35 36  1  0  0  0
 36 37  1  0  0  0
 36 65  1  0  0  0
 36 66  1  0  0  0
M  END
$$$$
