A1DIB
  CCTOOLS-0605261016

102106  0  0  1  0  0  0  0  0999 V2000
    8.0580    0.7870    0.6180 C   0  0  0  0  0
    9.4250   -0.8930    1.3690 C   0  0  0  0  0
   10.5090   -0.0270    1.3250 C   0  0  0  0  0
    6.7130    1.2660    0.2210 C   0  0  0  0  0
    9.1480    1.6550    0.5810 C   0  0  0  0  0
    6.5590    2.4160   -0.1380 O   0  0  0  0  0
    8.2280   -0.4710    1.0160 N   0  0  0  0  0
   10.3450    1.2240    0.9350 N   0  0  0  0  0
    5.6610    0.4250    0.2580 N   0  0  0  0  0
    4.3310    0.8980   -0.1350 C   0  0  0  0  0
    3.2790    0.0550    0.5380 C   0  0  0  0  0
    3.6080   -0.8520    1.2730 O   0  0  0  0  0
    4.1780    0.7880   -1.6530 C   0  0  0  0  0
    4.3460   -0.6720   -2.0780 C   0  0  0  0  0
    4.1940   -0.7820   -3.5970 C   0  0  0  0  0
    5.2620    0.0740   -4.2800 C   0  0  0  0  0
    5.0940    1.5350   -3.8550 C   0  0  0  0  0
    5.2470    1.6440   -2.3360 C   0  0  0  0  0
    1.9730    0.3080    0.3230 N   0  0  0  0  0
    0.9500   -0.5120    0.9780 C   0  0  0  0  0
    0.6750    0.0380    2.3790 C   0  0  0  0  0
    1.9370   -0.0930    3.2340 C   0  0  0  0  0
    0.2770    1.5120    2.2790 C   0  0  0  0  0
   -0.4630   -0.7550    3.0230 C   0  0  0  0  0
   -0.3190   -0.4740    0.1650 C   0  0  0  0  0
   -0.6410    0.5440   -0.4100 O   0  0  0  0  0
   -3.3490   -0.6490    0.0520 C   0  0  0  0  0
   -1.0960   -1.5720    0.0790 N   0  0  0  0  0
   -3.1050   -0.1950    1.1500 O   0  0  0  0  0
   -2.4070   -1.6410   -0.5800 C   0  0  0  0  0
   -2.9510   -3.0710   -0.3900 C   0  0  0  0  0
   -2.1300   -3.6040    0.8250 C   0  0  0  0  0
   -2.4530   -3.9440   -1.5640 C   0  0  0  0  0
   -2.1960   -5.3310   -0.9450 C   0  0  0  0  0
   -0.7670   -2.9010    0.6220 C   0  0  0  0  0
   -1.9670   -5.1090    0.5580 C   0  0  0  0  0
   -9.1730    0.9600   -0.3890 N   0  0  0  0  0
   -4.4630   -0.2650   -0.6030 N   0  0  0  0  0
   -5.3780    0.6990    0.0100 C   0  0  0  0  0
   -6.7610    0.5130   -0.5600 C   0  0  0  0  0
   -4.8930    2.1210   -0.2830 C   0  0  0  0  0
   -3.5440    2.3500    0.4020 C   0  0  0  0  0
   -3.0590    3.7720    0.1090 C   0  0  0  0  0
   -7.9370    1.1270    0.1210 C   0  0  0  0  0
  -10.3290    1.5630    0.2800 C   0  0  0  0  0
  -11.6950    0.9120    0.0540 C   0  0  0  0  0
  -11.3710    2.2580   -0.5990 C   0  0  0  0  0
   -7.7810    1.7760    1.1340 O   0  0  0  0  0
   -6.9160   -0.1330   -1.5680 O   0  0  0  0  0
    9.0140    2.6780    0.2620 H   0  0  0  0  0
    9.5630   -1.9140    1.6920 H   0  0  0  0  0
   11.4900   -0.3770    1.6150 H   0  0  0  0  0
    5.7840   -0.4940    0.5440 H   0  0  0  0  0
    4.2120    1.9380    0.1680 H   0  0  0  0  0
    3.1890    1.1400   -1.9450 H   0  0  0  0  0
    5.3360   -1.0240   -1.7860 H   0  0  0  0  0
    3.5850   -1.2820   -1.5920 H   0  0  0  0  0
    4.3130   -1.8220   -3.8990 H   0  0  0  0  0
    3.2040   -0.4300   -3.8890 H   0  0  0  0  0
    6.2510   -0.2780   -3.9880 H   0  0  0  0  0
    5.1530   -0.0040   -5.3610 H   0  0  0  0  0
    5.8550    2.1450   -4.3410 H   0  0  0  0  0
    4.1040    1.8870   -4.1470 H   0  0  0  0  0
    5.1270    2.6840   -2.0330 H   0  0  0  0  0
    6.2360    1.2920   -2.0440 H   0  0  0  0  0
    1.7100    1.0340   -0.2650 H   0  0  0  0  0
    1.3030   -1.5400    1.0530 H   0  0  0  0  0
    2.7480    0.4720    2.7750 H   0  0  0  0  0
    1.7410    0.2990    4.2330 H   0  0  0  0  0
    2.2200   -1.1430    3.3050 H   0  0  0  0  0
   -0.6220    1.6050    1.6700 H   0  0  0  0  0
    0.0810    1.9030    3.2780 H   0  0  0  0  0
    1.0880    2.0770    1.8200 H   0  0  0  0  0
   -0.1480   -1.7880    3.1700 H   0  0  0  0  0
   -0.7150   -0.3120    3.9870 H   0  0  0  0  0
   -1.3370   -0.7310    2.3730 H   0  0  0  0  0
   -2.2990   -1.4240   -1.6420 H   0  0  0  0  0
   -4.0320   -3.1070   -0.2530 H   0  0  0  0  0
   -2.5970   -3.3910    1.7860 H   0  0  0  0  0
   -3.2170   -4.0110   -2.3380 H   0  0  0  0  0
   -1.5310   -3.5350   -1.9760 H   0  0  0  0  0
   -3.0620   -5.9750   -1.0990 H   0  0  0  0  0
   -1.3110   -5.7820   -1.3950 H   0  0  0  0  0
   -0.1530   -3.4570   -0.0860 H   0  0  0  0  0
   -0.2490   -2.8010    1.5760 H   0  0  0  0  0
   -0.9600   -5.4270    0.8310 H   0  0  0  0  0
   -2.7040   -5.6690    1.1330 H   0  0  0  0  0
   -9.2980    0.4410   -1.1990 H   0  0  0  0  0
   -4.6580   -0.6280   -1.4820 H   0  0  0  0  0
   -5.4050    0.5400    1.0880 H   0  0  0  0  0
   -4.7810    2.2520   -1.3590 H   0  0  0  0  0
   -5.6200    2.8380    0.0970 H   0  0  0  0  0
   -3.6560    2.2190    1.4780 H   0  0  0  0  0
   -2.8170    1.6330    0.0220 H   0  0  0  0  0
   -2.9470    3.9030   -0.9670 H   0  0  0  0  0
   -3.7860    4.4890    0.4890 H   0  0  0  0  0
   -2.0980    3.9350    0.5970 H   0  0  0  0  0
  -10.1320    1.9920    1.2620 H   0  0  0  0  0
  -11.7340    0.0350   -0.5920 H   0  0  0  0  0
  -12.3970    0.9130    0.8880 H   0  0  0  0  0
  -11.8600    3.1440   -0.1950 H   0  0  0  0  0
  -11.1960    2.2660   -1.6750 H   0  0  0  0  0
  1  4  1  0  0  0
  2  7  2  0  0  0
  2 51  1  0  0  0
  3  8  2  0  0  0
  3  2  1  0  0  0
  3 52  1  0  0  0
  4  9  1  0  0  0
  4  6  2  0  0  0
  5  1  2  0  0  0
  5 50  1  0  0  0
  7  1  1  0  0  0
  8  5  1  0  0  0
  9 10  1  0  0  0
  9 53  1  0  0  0
 10 13  1  0  0  0
 10 54  1  0  0  0
 11 19  1  0  0  0
 11 10  1  0  0  0
 12 11  2  0  0  0
 13 18  1  0  0  0
 13 14  1  0  0  0
 13 55  1  0  0  0
 14 15  1  0  0  0
 14 57  1  0  0  0
 14 56  1  0  0  0
 15 16  1  0  0  0
 15 58  1  0  0  0
 15 59  1  0  0  0
 16 60  1  0  0  0
 16 61  1  0  0  0
 17 16  1  0  0  0
 17 62  1  0  0  0
 17 63  1  0  0  0
 18 17  1  0  0  0
 18 64  1  0  0  0
 18 65  1  0  0  0
 19 66  1  0  0  0
 20 19  1  0  0  0
 20 25  1  0  0  0
 20 67  1  0  0  0
 21 20  1  0  0  0
 21 23  1  0  0  0
 22 21  1  0  0  0
 22 68  1  0  0  0
 22 69  1  0  0  0
 22 70  1  0  0  0
 23 71  1  0  0  0
 23 72  1  0  0  0
 23 73  1  0  0  0
 24 21  1  0  0  0
 24 74  1  0  0  0
 24 75  1  0  0  0
 24 76  1  0  0  0
 25 26  2  0  0  0
 27 30  1  0  0  0
 27 38  1  0  0  0
 28 25  1  0  0  0
 28 30  1  0  0  0
 29 27  2  0  0  0
 30 77  1  0  0  0
 31 30  1  0  0  0
 31 33  1  0  0  0
 31 78  1  0  0  0
 32 31  1  0  0  0
 32 36  1  0  0  0
 32 79  1  0  0  0
 33 80  1  0  0  0
 33 81  1  0  0  0
 34 33  1  0  0  0
 34 82  1  0  0  0
 34 83  1  0  0  0
 35 28  1  0  0  0
 35 32  1  0  0  0
 35 84  1  0  0  0
 35 85  1  0  0  0
 36 34  1  0  0  0
 36 86  1  0  0  0
 36 87  1  0  0  0
 37 44  1  0  0  0
 37 88  1  0  0  0
 38 89  1  0  0  0
 39 38  1  0  0  0
 39 40  1  0  0  0
 39 41  1  0  0  0
 39 90  1  0  0  0
 41 91  1  0  0  0
 41 92  1  0  0  0
 42 41  1  0  0  0
 42 43  1  0  0  0
 42 93  1  0  0  0
 42 94  1  0  0  0
 43 95  1  0  0  0
 43 96  1  0  0  0
 43 97  1  0  0  0
 44 40  1  0  0  0
 44 48  2  0  0  0
 45 37  1  0  0  0
 45 98  1  0  0  0
 46 45  1  0  0  0
 46 99  1  0  0  0
 46100  1  0  0  0
 47 45  1  0  0  0
 47 46  1  0  0  0
 47101  1  0  0  0
 47102  1  0  0  0
 49 40  2  0  0  0
M  END
$$$$
