DEX
  CCTOOLS-0919241043

 57 60  0  0  1  0  0  0  0  0999 V2000
   -1.5670    0.4360   -3.3110 C   0  0  0  0  0
   -1.4480    0.8180   -4.5730 C   0  0  0  0  0
   -0.2480    0.4460   -5.3410 C   0  0  0  0  0
    0.8200   -0.2980   -4.6570 C   0  0  0  0  0
    0.6820   -0.6640   -3.3900 C   0  0  0  0  0
    1.8150   -1.4120   -2.7130 C   0  0  0  0  0
    2.1440   -0.6920   -1.4010 C   0  0  0  0  0
    0.8800   -0.5740   -0.5470 C   0  0  0  0  0
   -0.1670    0.2940   -1.2620 C   0  0  0  0  0
   -0.5500   -0.3750   -2.5850 C   0  0  0  0  0
   -1.4220    0.5010   -0.4210 C   0  0  0  0  0
   -1.0870    1.0520    0.9730 C   0  0  0  0  0
   -0.0800    0.1090    1.6340 C   0  0  0  0  0
    1.2080    0.1020    0.7700 C   0  0  0  0  0
    2.1880   -0.6460    1.6790 C   0  0  0  0  0
    1.8810   -0.0550    3.0820 C   0  0  0  0  0
    0.4290    0.4800    3.0240 C   0  0  0  0  0
   -0.6310   -1.3170    1.6360 C   0  0  0  0  0
   -1.1930   -1.7130   -2.2160 C   0  0  0  0  0
   -0.3880   -0.2120    4.0830 C   0  0  0  0  0
   -1.6620    0.4170    4.5840 C   0  0  0  0  0
    2.8510    1.0860    3.3940 C   0  0  0  0  0
    0.3990    1.5450   -1.5270 F   0  0  0  0  0
   -0.1430    0.7480   -6.5150 O   0  0  0  0  0
   -2.0980   -0.7490   -0.2760 O   0  0  0  0  0
    0.3810    1.8960    3.2080 O   0  0  0  0  0
   -0.0230   -1.2730    4.5300 O   0  0  0  0  0
   -2.2520   -0.4240    5.5770 O   0  0  0  0  0
   -2.4570    0.7310   -2.7740 H   0  0  0  0  0
   -2.2300    1.4000   -5.0380 H   0  0  0  0  0
    1.7240   -0.5500   -5.1910 H   0  0  0  0  0
    2.6920   -1.4160   -3.3600 H   0  0  0  0  0
    1.5060   -2.4360   -2.5040 H   0  0  0  0  0
    2.5280    0.3030   -1.6200 H   0  0  0  0  0
    2.8980   -1.2600   -0.8550 H   0  0  0  0  0
    0.4690   -1.5660   -0.3590 H   0  0  0  0  0
   -2.0810    1.2040   -0.9310 H   0  0  0  0  0
   -1.9960    1.1360    1.5680 H   0  0  0  0  0
   -0.6100    2.0280    0.8820 H   0  0  0  0  0
    1.5550    1.1210    0.5960 H   0  0  0  0  0
    3.2180   -0.4390    1.3900 H   0  0  0  0  0
    1.9890   -1.7180    1.6600 H   0  0  0  0  0
    1.9630   -0.8330    3.8420 H   0  0  0  0  0
   -0.7140   -1.6760    0.6100 H   0  0  0  0  0
    0.0440   -1.9660    2.1940 H   0  0  0  0  0
   -1.6140   -1.3270    2.1060 H   0  0  0  0  0
   -1.1520   -2.3850   -3.0740 H   0  0  0  0  0
   -0.6540   -2.1570   -1.3800 H   0  0  0  0  0
   -2.2330   -1.5500   -1.9330 H   0  0  0  0  0
   -2.3570    0.5420    3.7540 H   0  0  0  0  0
   -1.4380    1.3910    5.0200 H   0  0  0  0  0
    3.8700    0.7010    3.4190 H   0  0  0  0  0
    2.7700    1.8520    2.6230 H   0  0  0  0  0
    2.6020    1.5190    4.3630 H   0  0  0  0  0
   -2.8850   -0.5810    0.2590 H   0  0  0  0  0
    0.7130    2.0740    4.0990 H   0  0  0  0  0
   -3.0620    0.0140    5.8700 H   0  0  0  0  0
  1  2  2  0  0  0
  1 10  1  0  0  0
  1 29  1  0  0  0
  2  3  1  0  0  0
  2 30  1  0  0  0
  3  4  1  0  0  0
  3 24  2  0  0  0
  4  5  2  0  0  0
  4 31  1  0  0  0
  5  6  1  0  0  0
  5 10  1  0  0  0
  6  7  1  0  0  0
  6 32  1  0  0  0
  6 33  1  0  0  0
  7  8  1  0  0  0
  7 34  1  0  0  0
  7 35  1  0  0  0
  8  9  1  0  0  0
  8 14  1  0  0  0
  8 36  1  0  0  0
  9 10  1  0  0  0
  9 11  1  0  0  0
  9 23  1  0  0  0
 10 19  1  0  0  0
 11 12  1  0  0  0
 11 25  1  0  0  0
 11 37  1  0  0  0
 12 13  1  0  0  0
 12 38  1  0  0  0
 12 39  1  0  0  0
 13 14  1  0  0  0
 13 17  1  0  0  0
 13 18  1  0  0  0
 14 15  1  0  0  0
 14 40  1  0  0  0
 15 16  1  0  0  0
 15 41  1  0  0  0
 15 42  1  0  0  0
 16 17  1  0  0  0
 16 22  1  0  0  0
 16 43  1  0  0  0
 17 20  1  0  0  0
 17 26  1  0  0  0
 18 44  1  0  0  0
 18 45  1  0  0  0
 18 46  1  0  0  0
 19 47  1  0  0  0
 19 48  1  0  0  0
 19 49  1  0  0  0
 20 21  1  0  0  0
 20 27  2  0  0  0
 21 28  1  0  0  0
 21 50  1  0  0  0
 21 51  1  0  0  0
 22 52  1  0  0  0
 22 53  1  0  0  0
 22 54  1  0  0  0
 25 55  1  0  0  0
 26 56  1  0  0  0
 28 57  1  0  0  0
M  END
$$$$
