DR7
  CCTOOLS-0919241027

103105  0  0  1  0  0  0  0  0999 V2000
    9.9250    2.5170    1.1900 C   0  0  0  0  0
    8.9330    1.8380    0.3760 O   0  0  0  0  0
    7.6240    1.9750    0.6560 C   0  0  0  0  0
    7.2720    2.6670    1.5910 O   0  0  0  0  0
    6.7030    1.3450   -0.1000 N   0  0  0  0  0
    5.2780    1.4950    0.2050 C   0  0  0  0  0
    4.7440    2.7630   -0.4620 C   0  0  0  0  0
    4.8400    2.6190   -1.9820 C   0  0  0  0  0
    3.2820    2.9740   -0.0610 C   0  0  0  0  0
    5.5750    3.9660   -0.0110 C   0  0  0  0  0
    4.5240    0.2980   -0.3150 C   0  0  0  0  0
    4.9680   -0.3400   -1.2470 O   0  0  0  0  0
    3.3580   -0.0640    0.2550 N   0  0  0  0  0
    2.6880   -1.2970   -0.1670 C   0  0  0  0  0
    3.2660   -2.4820    0.6090 C   0  0  0  0  0
    4.7150   -2.6680    0.2370 C   0  0  0  0  0
    5.7010   -2.0160    0.9530 C   0  0  0  0  0
    7.0300   -2.1860    0.6110 C   0  0  0  0  0
    7.3720   -3.0090   -0.4460 C   0  0  0  0  0
    6.3850   -3.6620   -1.1610 C   0  0  0  0  0
    5.0570   -3.4950   -0.8160 C   0  0  0  0  0
    1.1890   -1.1850    0.1160 C   0  0  0  0  0
    0.9810   -0.9850    1.5160 O   0  0  0  0  0
    0.6110    0.0000   -0.6600 C   0  0  0  0  0
   -0.8550   -0.0960   -0.6800 N   0  0  0  0  0
   -1.1680   -1.1540   -1.4850 N   0  0  0  0  0
   -2.3070   -1.8450   -1.2780 C   0  0  0  0  0
   -2.6350   -2.7200   -2.0520 O   0  0  0  0  0
   -3.1730   -1.5310   -0.0860 C   0  0  0  0  0
   -2.6300   -2.2590    1.1450 C   0  0  0  0  0
   -1.2770   -1.6610    1.5370 C   0  0  0  0  0
   -3.6130   -2.1010    2.3070 C   0  0  0  0  0
   -2.4560   -3.7450    0.8230 C   0  0  0  0  0
   -4.5450   -1.9710   -0.3480 N   0  0  0  0  0
   -5.5750   -1.3860    0.2930 C   0  0  0  0  0
   -5.3660   -0.4920    1.0890 O   0  0  0  0  0
   -6.8360   -1.7910    0.0520 O   0  0  0  0  0
   -7.9470   -1.1600    0.7430 C   0  0  0  0  0
   -1.3480    1.1100   -1.3580 C   0  0  0  0  0
   -2.7980    1.3260   -1.0080 C   0  0  0  0  0
   -3.1350    2.1060    0.0830 C   0  0  0  0  0
   -4.4610    2.3070    0.4080 C   0  0  0  0  0
   -3.7870    0.7480   -1.7840 C   0  0  0  0  0
   -5.1160    0.9380   -1.4650 C   0  0  0  0  0
   -5.4620    1.7220   -0.3660 C   0  0  0  0  0
   -6.8890    1.9340   -0.0220 C   0  0  0  0  0
   -7.8230    2.1320   -1.0370 C   0  0  0  0  0
   -9.1510    2.3280   -0.7000 C   0  0  0  0  0
   -9.5020    2.3210    0.6420 C   0  0  0  0  0
   -8.5230    2.1190    1.5980 C   0  0  0  0  0
   -7.2670    1.9290    1.2500 N   0  0  0  0  0
    9.7580    3.5930    1.1450 H   0  0  0  0  0
    9.8400    2.1790    2.2230 H   0  0  0  0  0
   10.9220    2.2880    0.8140 H   0  0  0  0  0
    6.9840    0.7920   -0.8460 H   0  0  0  0  0
    5.1430    1.5680    1.2850 H   0  0  0  0  0
    4.2480    1.7620   -2.3040 H   0  0  0  0  0
    4.4590    3.5230   -2.4580 H   0  0  0  0  0
    5.8810    2.4690   -2.2680 H   0  0  0  0  0
    3.2010    2.9830    1.0260 H   0  0  0  0  0
    2.9300    3.9250   -0.4600 H   0  0  0  0  0
    2.6750    2.1640   -0.4640 H   0  0  0  0  0
    6.6160    3.8160   -0.2960 H   0  0  0  0  0
    5.1940    4.8700   -0.4860 H   0  0  0  0  0
    5.5060    4.0690    1.0720 H   0  0  0  0  0
    2.9620    0.4920    0.9440 H   0  0  0  0  0
    2.8460   -1.4500   -1.2340 H   0  0  0  0  0
    3.1880   -2.2890    1.6790 H   0  0  0  0  0
    2.7090   -3.3860    0.3620 H   0  0  0  0  0
    5.4340   -1.3730    1.7780 H   0  0  0  0  0
    7.8010   -1.6760    1.1700 H   0  0  0  0  0
    8.4100   -3.1420   -0.7130 H   0  0  0  0  0
    6.6530   -4.3050   -1.9860 H   0  0  0  0  0
    4.2860   -4.0050   -1.3750 H   0  0  0  0  0
    0.6900   -2.1030   -0.1980 H   0  0  0  0  0
    1.4370   -0.1660    1.7510 H   0  0  0  0  0
    0.9070    0.9300   -0.1760 H   0  0  0  0  0
    0.9900   -0.0150   -1.6820 H   0  0  0  0  0
   -0.5710   -1.4090   -2.2060 H   0  0  0  0  0
   -3.1650   -0.4560    0.0960 H   0  0  0  0  0
   -1.3870   -0.5890    1.7000 H   0  0  0  0  0
   -0.9220   -2.1340    2.4530 H   0  0  0  0  0
   -0.5580   -1.8340    0.7360 H   0  0  0  0  0
   -4.5760   -2.5270    2.0280 H   0  0  0  0  0
   -3.2260   -2.6200    3.1840 H   0  0  0  0  0
   -3.7360   -1.0430    2.5360 H   0  0  0  0  0
   -1.6900   -3.8640    0.0570 H   0  0  0  0  0
   -2.1550   -4.2790    1.7240 H   0  0  0  0  0
   -3.4000   -4.1500    0.4580 H   0  0  0  0  0
   -4.7120   -2.6850   -0.9840 H   0  0  0  0  0
   -7.8280   -1.2940    1.8180 H   0  0  0  0  0
   -7.9630   -0.0960    0.5090 H   0  0  0  0  0
   -8.8820   -1.6170    0.4200 H   0  0  0  0  0
   -0.7640    1.9720   -1.0350 H   0  0  0  0  0
   -1.2490    0.9870   -2.4360 H   0  0  0  0  0
   -2.3590    2.5580    0.6830 H   0  0  0  0  0
   -4.7230    2.9150    1.2610 H   0  0  0  0  0
   -3.5180    0.1410   -2.6350 H   0  0  0  0  0
   -5.8880    0.4830   -2.0690 H   0  0  0  0  0
   -7.5140    2.1320   -2.0720 H   0  0  0  0  0
   -9.8970    2.4840   -1.4650 H   0  0  0  0  0
  -10.5290    2.4710    0.9380 H   0  0  0  0  0
   -8.7930    2.1120    2.6440 H   0  0  0  0  0
  1  2  1  0  0  0
  1 52  1  0  0  0
  1 53  1  0  0  0
  1 54  1  0  0  0
  2  3  1  0  0  0
  3  4  2  0  0  0
  3  5  1  0  0  0
  5  6  1  0  0  0
  5 55  1  0  0  0
  6  7  1  0  0  0
  6 11  1  0  0  0
  6 56  1  0  0  0
  7  8  1  0  0  0
  7  9  1  0  0  0
  7 10  1  0  0  0
  8 57  1  0  0  0
  8 58  1  0  0  0
  8 59  1  0  0  0
  9 60  1  0  0  0
  9 61  1  0  0  0
  9 62  1  0  0  0
 10 63  1  0  0  0
 10 64  1  0  0  0
 10 65  1  0  0  0
 11 12  2  0  0  0
 11 13  1  0  0  0
 13 14  1  0  0  0
 13 66  1  0  0  0
 14 15  1  0  0  0
 14 22  1  0  0  0
 14 67  1  0  0  0
 15 16  1  0  0  0
 15 68  1  0  0  0
 15 69  1  0  0  0
 16 17  2  0  0  0
 16 21  1  0  0  0
 17 18  1  0  0  0
 17 70  1  0  0  0
 18 19  2  0  0  0
 18 71  1  0  0  0
 19 20  1  0  0  0
 19 72  1  0  0  0
 20 21  2  0  0  0
 20 73  1  0  0  0
 21 74  1  0  0  0
 22 23  1  0  0  0
 22 24  1  0  0  0
 22 75  1  0  0  0
 23 76  1  0  0  0
 24 25  1  0  0  0
 24 77  1  0  0  0
 24 78  1  0  0  0
 25 26  1  0  0  0
 25 39  1  0  0  0
 26 27  1  0  0  0
 26 79  1  0  0  0
 27 28  2  0  0  0
 27 29  1  0  0  0
 29 30  1  0  0  0
 29 34  1  0  0  0
 29 80  1  0  0  0
 30 31  1  0  0  0
 30 32  1  0  0  0
 30 33  1  0  0  0
 31 81  1  0  0  0
 31 82  1  0  0  0
 31 83  1  0  0  0
 32 84  1  0  0  0
 32 85  1  0  0  0
 32 86  1  0  0  0
 33 87  1  0  0  0
 33 88  1  0  0  0
 33 89  1  0  0  0
 34 35  1  0  0  0
 34 90  1  0  0  0
 35 36  2  0  0  0
 35 37  1  0  0  0
 37 38  1  0  0  0
 38 91  1  0  0  0
 38 92  1  0  0  0
 38 93  1  0  0  0
 39 40  1  0  0  0
 39 94  1  0  0  0
 39 95  1  0  0  0
 40 41  1  0  0  0
 40 43  2  0  0  0
 41 42  2  0  0  0
 41 96  1  0  0  0
 42 45  1  0  0  0
 42 97  1  0  0  0
 43 44  1  0  0  0
 43 98  1  0  0  0
 44 45  2  0  0  0
 44 99  1  0  0  0
 45 46  1  0  0  0
 46 47  1  0  0  0
 46 51  2  0  0  0
 47 48  2  0  0  0
 47100  1  0  0  0
 48 49  1  0  0  0
 48101  1  0  0  0
 49 50  2  0  0  0
 49102  1  0  0  0
 50 51  1  0  0  0
 50103  1  0  0  0
M  END
$$$$
