TUA
  CCTOOLS-0919241036

 54 57  0  0  1  0  0  0  0  0999 V2000
   -3.1730    1.6390   -0.2690 C   0  0  0  0  0
   -4.4420    1.6490   -0.6470 C   0  0  0  0  0
   -5.2670    0.4420   -0.4780 C   0  0  0  0  0
   -4.6340   -0.7720    0.0600 C   0  0  0  0  0
   -3.3590   -0.7620    0.4250 C   0  0  0  0  0
   -2.7370   -2.0400    0.9550 C   0  0  0  0  0
   -1.4470   -2.3030    0.1710 C   0  0  0  0  0
   -0.5310   -1.0810    0.2620 C   0  0  0  0  0
   -1.2070    0.1220   -0.4150 C   0  0  0  0  0
   -2.4930    0.4590    0.3370 C   0  0  0  0  0
   -0.3040    1.3520   -0.4110 C   0  0  0  0  0
    1.0700    1.0490   -1.0310 C   0  0  0  0  0
    1.6770   -0.0920   -0.2390 C   0  0  0  0  0
    0.7650   -1.3510   -0.4790 C   0  0  0  0  0
    1.6370   -2.4760    0.0900 C   0  0  0  0  0
    3.0500   -2.1270   -0.4500 C   0  0  0  0  0
    3.0540   -0.5640   -0.6930 C   0  0  0  0  0
    1.7120    0.2460    1.2530 C   0  0  0  0  0
   -2.1080    0.8540    1.7640 C   0  0  0  0  0
    4.1320    0.1110    0.1160 C   0  0  0  0  0
    4.7110    1.4230   -0.3470 C   0  0  0  0  0
   -6.4470    0.4470   -0.7760 O   0  0  0  0  0
   -0.1200    1.7910    0.9360 O   0  0  0  0  0
    3.2360   -0.2940   -2.0850 O   0  0  0  0  0
    4.5300   -0.4000    1.1350 O   0  0  0  0  0
    5.7070    1.8570    0.5810 O   0  0  0  0  0
   -2.5930    2.5390   -0.4140 H   0  0  0  0  0
   -4.8710    2.5420   -1.0770 H   0  0  0  0  0
   -5.2120   -1.6790    0.1590 H   0  0  0  0  0
   -2.5060   -1.9250    2.0140 H   0  0  0  0  0
   -3.4280   -2.8710    0.8160 H   0  0  0  0  0
   -0.9380   -3.1700    0.5900 H   0  0  0  0  0
   -1.6910   -2.4950   -0.8740 H   0  0  0  0  0
   -0.3180   -0.8590    1.3080 H   0  0  0  0  0
   -1.4540   -0.1380   -1.4440 H   0  0  0  0  0
   -0.7840    2.1480   -0.9810 H   0  0  0  0  0
    0.9500    0.7550   -2.0740 H   0  0  0  0  0
    1.7090    1.9300   -0.9660 H   0  0  0  0  0
    0.5690   -1.5080   -1.5400 H   0  0  0  0  0
    1.6330   -2.4910    1.1800 H   0  0  0  0  0
    1.2960   -3.4310   -0.3110 H   0  0  0  0  0
    3.8060   -2.3650    0.2990 H   0  0  0  0  0
    3.2470   -2.6790   -1.3690 H   0  0  0  0  0
    2.2200    1.1990    1.3980 H   0  0  0  0  0
    0.6920    0.3170    1.6330 H   0  0  0  0  0
    2.2470   -0.5360    1.7910 H   0  0  0  0  0
   -1.7760    1.8920    1.7770 H   0  0  0  0  0
   -2.9720    0.7400    2.4180 H   0  0  0  0  0
   -1.3010    0.2100    2.1130 H   0  0  0  0  0
    5.1630    1.2930   -1.3310 H   0  0  0  0  0
    3.9190    2.1690   -0.4060 H   0  0  0  0  0
    0.4170    2.5910    1.0190 H   0  0  0  0  0
    4.0950   -0.5730   -2.4310 H   0  0  0  0  0
    6.1240    2.6970    0.3460 H   0  0  0  0  0
  1  2  2  0  0  0
  1 27  1  0  0  0
  2  3  1  0  0  0
  2 28  1  0  0  0
  3 22  2  0  0  0
  4  3  1  0  0  0
  4 29  1  0  0  0
  5  4  2  0  0  0
  6  7  1  0  0  0
  6  5  1  0  0  0
  6 30  1  0  0  0
  6 31  1  0  0  0
  7 32  1  0  0  0
  7 33  1  0  0  0
  8 14  1  0  0  0
  8  7  1  0  0  0
  8  9  1  0  0  0
  8 34  1  0  0  0
  9 35  1  0  0  0
 10  9  1  0  0  0
 10  5  1  0  0  0
 10  1  1  0  0  0
 11 12  1  0  0  0
 11  9  1  0  0  0
 11 36  1  0  0  0
 12 37  1  0  0  0
 12 38  1  0  0  0
 13 17  1  0  0  0
 13 14  1  0  0  0
 13 12  1  0  0  0
 14 39  1  0  0  0
 15 16  1  0  0  0
 15 14  1  0  0  0
 15 40  1  0  0  0
 15 41  1  0  0  0
 16 17  1  0  0  0
 16 42  1  0  0  0
 16 43  1  0  0  0
 17 24  1  0  0  0
 18 13  1  0  0  0
 18 44  1  0  0  0
 18 45  1  0  0  0
 18 46  1  0  0  0
 19 10  1  0  0  0
 19 47  1  0  0  0
 19 48  1  0  0  0
 19 49  1  0  0  0
 20 21  1  0  0  0
 20 17  1  0  0  0
 21 50  1  0  0  0
 21 51  1  0  0  0
 23 11  1  0  0  0
 23 52  1  0  0  0
 24 53  1  0  0  0
 25 20  2  0  0  0
 26 21  1  0  0  0
 26 54  1  0  0  0
M  END
$$$$
