HCY
  CCTOOLS-0919241027

 56 59  0  0  1  0  0  0  0  0999 V2000
   -3.1630    1.6950   -0.0820 C   0  0  0  0  0
   -4.2380    1.4210   -1.1330 C   0  0  0  0  0
   -5.2090    0.4150   -0.5450 C   0  0  0  0  0
   -4.6140   -0.8160   -0.0050 C   0  0  0  0  0
   -3.3510   -0.7940    0.4100 C   0  0  0  0  0
   -2.7250   -2.0780    0.9270 C   0  0  0  0  0
   -1.4270   -2.3090    0.1450 C   0  0  0  0  0
   -0.5200   -1.0840    0.2660 C   0  0  0  0  0
   -1.2020    0.1400   -0.3700 C   0  0  0  0  0
   -2.4910    0.4320    0.3970 C   0  0  0  0  0
    1.0690    1.0820   -0.9810 C   0  0  0  0  0
   -0.2960    1.3670   -0.3350 C   0  0  0  0  0
    1.6840   -0.0860   -0.2340 C   0  0  0  0  0
    0.7770   -1.3210   -0.4860 C   0  0  0  0  0
    1.6540   -2.4630    0.0380 C   0  0  0  0  0
    3.0660   -2.0870   -0.4880 C   0  0  0  0  0
    3.0540   -0.5540   -0.7140 C   0  0  0  0  0
    1.7340    0.2240    1.2630 C   0  0  0  0  0
   -2.0680    0.6830    1.8460 C   0  0  0  0  0
    4.1430    0.1010    0.0960 C   0  0  0  0  0
    4.6790    1.4490   -0.3130 C   0  0  0  0  0
   -6.4060    0.6140   -0.5210 O   0  0  0  0  0
   -0.0970    1.7610    1.0240 O   0  0  0  0  0
    3.2210   -0.2570   -2.1020 O   0  0  0  0  0
    4.5860   -0.4540    1.0730 O   0  0  0  0  0
    5.6960    1.8560    0.6050 O   0  0  0  0  0
   -5.1940   -1.7250    0.0530 H   0  0  0  0  0
   -4.7640    2.3450   -1.3740 H   0  0  0  0  0
   -3.7800    1.0110   -2.0330 H   0  0  0  0  0
   -2.5040   -1.9810    1.9900 H   0  0  0  0  0
   -3.4070   -2.9130    0.7650 H   0  0  0  0  0
   -0.9120   -3.1810    0.5470 H   0  0  0  0  0
   -1.6620   -2.4820   -0.9050 H   0  0  0  0  0
   -0.3040   -0.8900    1.3170 H   0  0  0  0  0
   -2.4090    2.3540   -0.5120 H   0  0  0  0  0
   -3.6240    2.1940    0.7700 H   0  0  0  0  0
   -2.9270    0.5530    2.5030 H   0  0  0  0  0
   -1.2870   -0.0240    2.1240 H   0  0  0  0  0
   -1.6880    1.7010    1.9420 H   0  0  0  0  0
   -1.4580   -0.0890   -1.4050 H   0  0  0  0  0
   -0.7800    2.1810   -0.8740 H   0  0  0  0  0
    0.5800   -1.4380   -1.5520 H   0  0  0  0  0
    0.4700    2.5370    1.1290 H   0  0  0  0  0
    0.9370    0.8230   -2.0310 H   0  0  0  0  0
    1.7120    1.9580   -0.8930 H   0  0  0  0  0
    0.7210    0.2300    1.6670 H   0  0  0  0  0
    2.3230   -0.5380    1.7730 H   0  0  0  0  0
    2.1920    1.2010    1.4170 H   0  0  0  0  0
    1.6430   -2.4890    1.1280 H   0  0  0  0  0
    1.3300   -3.4180   -0.3750 H   0  0  0  0  0
    3.8230   -2.3500    0.2500 H   0  0  0  0  0
    3.2640   -2.6020   -1.4280 H   0  0  0  0  0
    4.0750   -0.5320   -2.4630 H   0  0  0  0  0
    5.1000    1.3830   -1.3160 H   0  0  0  0  0
    3.8700    2.1790   -0.3060 H   0  0  0  0  0
    6.0870    2.7170    0.4030 H   0  0  0  0  0
  1 10  1  0  0  0
  1 35  1  0  0  0
  1 36  1  0  0  0
  2  1  1  0  0  0
  2 28  1  0  0  0
  2 29  1  0  0  0
  3  4  1  0  0  0
  3  2  1  0  0  0
  4  5  2  0  0  0
  4 27  1  0  0  0
  5  6  1  0  0  0
  5 10  1  0  0  0
  6  7  1  0  0  0
  6 30  1  0  0  0
  6 31  1  0  0  0
  7  8  1  0  0  0
  7 32  1  0  0  0
  7 33  1  0  0  0
  8 14  1  0  0  0
  8 34  1  0  0  0
  9  8  1  0  0  0
  9 12  1  0  0  0
  9 40  1  0  0  0
 10 19  1  0  0  0
 10  9  1  0  0  0
 11 13  1  0  0  0
 11 44  1  0  0  0
 11 45  1  0  0  0
 12 23  1  0  0  0
 12 11  1  0  0  0
 12 41  1  0  0  0
 13 18  1  0  0  0
 13 14  1  0  0  0
 13 17  1  0  0  0
 14 15  1  0  0  0
 14 42  1  0  0  0
 15 16  1  0  0  0
 15 49  1  0  0  0
 15 50  1  0  0  0
 16 17  1  0  0  0
 16 51  1  0  0  0
 16 52  1  0  0  0
 17 24  1  0  0  0
 17 20  1  0  0  0
 18 46  1  0  0  0
 18 47  1  0  0  0
 18 48  1  0  0  0
 19 37  1  0  0  0
 19 38  1  0  0  0
 19 39  1  0  0  0
 20 25  2  0  0  0
 20 21  1  0  0  0
 21 26  1  0  0  0
 21 54  1  0  0  0
 21 55  1  0  0  0
 22  3  2  0  0  0
 23 43  1  0  0  0
 24 53  1  0  0  0
 26 56  1  0  0  0
M  END
$$$$
