ROC
  CCTOOLS-0919241043

 99103  0  0  1  0  0  0  0  0999 V2000
    4.6460   -1.2020   -0.3830 C   0  0  0  0  0
    4.5030   -1.8210   -1.4190 O   0  0  0  0  0
    6.0160    0.2610    0.9700 N   0  0  0  0  0
    5.8770   -0.4060   -0.1590 C   0  0  0  0  0
    6.8670   -0.3810   -1.1520 C   0  0  0  0  0
    8.0050    0.3480   -0.9580 C   0  0  0  0  0
    9.2880    1.8260    0.5160 C   0  0  0  0  0
    9.3870    2.4990    1.6960 C   0  0  0  0  0
    8.3680    2.4350    2.6450 C   0  0  0  0  0
    7.2460    1.7000    2.4220 C   0  0  0  0  0
    8.1440    1.0570    0.2500 C   0  0  0  0  0
    7.1050    0.9890    1.2140 C   0  0  0  0  0
    3.6820   -1.2330    0.5590 N   0  0  0  0  0
    2.4260   -1.9390    0.2980 C   0  0  0  0  0
    1.3760   -0.9520   -0.1420 C   0  0  0  0  0
    1.6510    0.2260   -0.2300 O   0  0  0  0  0
    1.9620   -2.6410    1.5760 C   0  0  0  0  0
    2.9420   -3.7280    1.9370 C   0  0  0  0  0
    3.8580   -3.9910    1.1870 O   0  0  0  0  0
    2.8000   -4.4060    3.0930 N   0  0  0  0  0
   -2.2770   -0.9740   -0.5470 C   0  0  0  0  0
   -2.5120   -2.1480   -1.3260 O   0  0  0  0  0
   -0.8880   -0.4180   -0.8670 C   0  0  0  0  0
    0.1320   -1.3780   -0.4390 N   0  0  0  0  0
   -0.7680   -0.1840   -2.3740 C   0  0  0  0  0
    0.5530    0.4770   -2.6760 C   0  0  0  0  0
    1.6680   -0.2960   -2.9400 C   0  0  0  0  0
    0.6480    1.8550   -2.6930 C   0  0  0  0  0
    2.8790    0.3100   -3.2170 C   0  0  0  0  0
    1.8590    2.4620   -2.9700 C   0  0  0  0  0
    2.9750    1.6890   -3.2300 C   0  0  0  0  0
   -4.6500   -0.3830   -0.4100 N   0  0  0  0  0
   -3.3370    0.0790   -0.8790 C   0  0  0  0  0
   -5.5990    0.7340   -0.3190 C   0  0  0  0  0
   -5.0110    1.8240    0.5380 C   0  0  0  0  0
   -4.1100    1.5700    1.3090 O   0  0  0  0  0
   -6.9090    0.2450    0.3040 C   0  0  0  0  0
   -7.4880   -0.8800   -0.5570 C   0  0  0  0  0
   -8.7740   -1.4060    0.0780 C   0  0  0  0  0
   -8.4710   -1.9560    1.4730 C   0  0  0  0  0
   -7.4550   -3.0950    1.3590 C   0  0  0  0  0
   -6.1640   -2.5630    0.7330 C   0  0  0  0  0
   -6.4610   -2.0110   -0.6630 C   0  0  0  0  0
   -5.1680   -1.4560   -1.2680 C   0  0  0  0  0
   -5.4860    3.0820    0.4490 N   0  0  0  0  0
   -4.9150    4.1420    1.2830 C   0  0  0  0  0
   -3.4240    4.2880    0.9720 C   0  0  0  0  0
   -5.6280    5.4630    0.9890 C   0  0  0  0  0
   -5.0950    3.7830    2.7590 C   0  0  0  0  0
    6.7290   -0.9360   -2.0680 H   0  0  0  0  0
    8.7780    0.3790   -1.7110 H   0  0  0  0  0
   10.0840    1.8840   -0.2110 H   0  0  0  0  0
   10.2680    3.0910    1.8990 H   0  0  0  0  0
    8.4720    2.9780    3.5730 H   0  0  0  0  0
    6.4660    1.6610    3.1680 H   0  0  0  0  0
    3.8210   -0.7870    1.4090 H   0  0  0  0  0
    2.5810   -2.6790   -0.4870 H   0  0  0  0  0
    1.9060   -1.9170    2.3890 H   0  0  0  0  0
    0.9770   -3.0800    1.4120 H   0  0  0  0  0
    2.0670   -4.1960    3.6920 H   0  0  0  0  0
    3.4310   -5.1060    3.3250 H   0  0  0  0  0
   -2.3330   -1.2240    0.5130 H   0  0  0  0  0
   -2.4770   -2.0000   -2.2810 H   0  0  0  0  0
   -0.7440    0.5250   -0.3400 H   0  0  0  0  0
   -0.0870   -2.3200   -0.3680 H   0  0  0  0  0
   -0.8230   -1.1400   -2.8960 H   0  0  0  0  0
   -1.5810    0.4600   -2.7080 H   0  0  0  0  0
    1.5930   -1.3740   -2.9310 H   0  0  0  0  0
   -0.2250    2.4590   -2.4910 H   0  0  0  0  0
    3.7500   -0.2940   -3.4230 H   0  0  0  0  0
    1.9330    3.5390   -2.9840 H   0  0  0  0  0
    3.9210    2.1620   -3.4450 H   0  0  0  0  0
   -3.0840    1.0170   -0.3850 H   0  0  0  0  0
   -3.3700    0.2330   -1.9570 H   0  0  0  0  0
   -5.7960    1.1240   -1.3180 H   0  0  0  0  0
   -6.7160   -0.1280    1.3100 H   0  0  0  0  0
   -7.6200    1.0700    0.3510 H   0  0  0  0  0
   -7.7060   -0.4980   -1.5540 H   0  0  0  0  0
   -9.4980   -0.5950    0.1570 H   0  0  0  0  0
   -9.1870   -2.2010   -0.5440 H   0  0  0  0  0
   -8.0600   -1.1620    2.0950 H   0  0  0  0  0
   -9.3900   -2.3330    1.9230 H   0  0  0  0  0
   -7.2400   -3.4910    2.3520 H   0  0  0  0  0
   -7.8640   -3.8860    0.7320 H   0  0  0  0  0
   -5.7580   -1.7690    1.3590 H   0  0  0  0  0
   -5.4380   -3.3720    0.6560 H   0  0  0  0  0
   -6.8570   -2.8060   -1.2950 H   0  0  0  0  0
   -5.3730   -1.0580   -2.2630 H   0  0  0  0  0
   -4.4290   -2.2530   -1.3410 H   0  0  0  0  0
   -6.2070    3.2860   -0.1670 H   0  0  0  0  0
   -3.2960    4.5440   -0.0800 H   0  0  0  0  0
   -2.9990    5.0760    1.5920 H   0  0  0  0  0
   -2.9150    3.3470    1.1810 H   0  0  0  0  0
   -6.6910    5.3590    1.2110 H   0  0  0  0  0
   -5.2030    6.2520    1.6100 H   0  0  0  0  0
   -5.5000    5.7190   -0.0630 H   0  0  0  0  0
   -4.5860    2.8420    2.9690 H   0  0  0  0  0
   -4.6690    4.5710    3.3800 H   0  0  0  0  0
   -6.1570    3.6790    2.9810 H   0  0  0  0  0
  1  4  1  0  0  0
  1 13  1  0  0  0
  2  1  2  0  0  0
  3  4  2  0  0  0
  3 12  1  0  0  0
  4  5  1  0  0  0
  5  6  2  0  0  0
  5 50  1  0  0  0
  6 11  1  0  0  0
  6 51  1  0  0  0
  7  8  1  0  0  0
  7 52  1  0  0  0
  8  9  2  0  0  0
  8 53  1  0  0  0
  9 10  1  0  0  0
  9 54  1  0  0  0
 10 12  2  0  0  0
 10 55  1  0  0  0
 11  7  2  0  0  0
 11 12  1  0  0  0
 13 14  1  0  0  0
 13 56  1  0  0  0
 14 15  1  0  0  0
 14 17  1  0  0  0
 14 57  1  0  0  0
 15 16  2  0  0  0
 15 24  1  0  0  0
 17 18  1  0  0  0
 17 58  1  0  0  0
 17 59  1  0  0  0
 18 19  2  0  0  0
 18 20  1  0  0  0
 20 60  1  0  0  0
 20 61  1  0  0  0
 21 22  1  0  0  0
 21 23  1  0  0  0
 21 62  1  0  0  0
 21 33  1  0  0  0
 22 63  1  0  0  0
 23 24  1  0  0  0
 23 25  1  0  0  0
 23 64  1  0  0  0
 24 65  1  0  0  0
 25 26  1  0  0  0
 25 66  1  0  0  0
 25 67  1  0  0  0
 26 27  2  0  0  0
 26 28  1  0  0  0
 27 29  1  0  0  0
 27 68  1  0  0  0
 28 30  2  0  0  0
 28 69  1  0  0  0
 29 31  2  0  0  0
 29 70  1  0  0  0
 30 31  1  0  0  0
 30 71  1  0  0  0
 31 72  1  0  0  0
 32 33  1  0  0  0
 32 34  1  0  0  0
 32 44  1  0  0  0
 33 73  1  0  0  0
 33 74  1  0  0  0
 34 35  1  0  0  0
 34 37  1  0  0  0
 34 75  1  0  0  0
 35 36  2  0  0  0
 35 45  1  0  0  0
 37 38  1  0  0  0
 37 76  1  0  0  0
 37 77  1  0  0  0
 38 39  1  0  0  0
 38 43  1  0  0  0
 38 78  1  0  0  0
 39 40  1  0  0  0
 39 79  1  0  0  0
 39 80  1  0  0  0
 40 41  1  0  0  0
 40 81  1  0  0  0
 40 82  1  0  0  0
 41 42  1  0  0  0
 41 83  1  0  0  0
 41 84  1  0  0  0
 42 43  1  0  0  0
 42 85  1  0  0  0
 42 86  1  0  0  0
 43 44  1  0  0  0
 43 87  1  0  0  0
 44 88  1  0  0  0
 44 89  1  0  0  0
 45 46  1  0  0  0
 45 90  1  0  0  0
 46 47  1  0  0  0
 46 48  1  0  0  0
 46 49  1  0  0  0
 47 91  1  0  0  0
 47 92  1  0  0  0
 47 93  1  0  0  0
 48 94  1  0  0  0
 48 95  1  0  0  0
 48 96  1  0  0  0
 49 97  1  0  0  0
 49 98  1  0  0  0
 49 99  1  0  0  0
M  END
$$$$
