1TA
  CCTOOLS-0919241035

 62 66  0  0  1  0  0  0  0  0999 V2000
   -5.6980    0.2920    0.7880 C   0  0  0  0  0
   -5.0090   -0.8410    1.4290 C   0  0  0  0  0
   -3.8310   -1.2390    0.9760 C   0  0  0  0  0
   -3.1260   -0.6120   -0.1780 C   0  0  0  0  0
   -3.0180   -1.6600   -1.2870 C   0  0  0  0  0
   -3.8330    0.5840   -0.7430 C   0  0  0  0  0
   -3.1600    1.3420   -1.8730 C   0  0  0  0  0
   -1.7510    1.7310   -1.4140 C   0  0  0  0  0
   -0.9920    0.4810   -0.9650 C   0  0  0  0  0
   -1.7040   -0.2000    0.2160 C   0  0  0  0  0
   -0.9120   -1.3940    0.7390 C   0  0  0  0  0
    0.5310   -1.0040    1.0970 C   0  0  0  0  0
    1.1620   -0.4220   -0.1530 C   0  0  0  0  0
    1.0320   -1.4140   -1.3100 C   0  0  0  0  0
    0.4170    0.8590   -0.5460 C   0  0  0  0  0
    1.3120    1.4200   -1.6570 C   0  0  0  0  0
    2.7460    1.1540   -1.1210 C   0  0  0  0  0
    2.6090    0.0420   -0.0300 C   0  0  0  0  0
    3.7720    1.8120    0.8190 C   0  0  0  0  0
    5.1970    1.3300    0.5420 C   0  0  0  0  0
    3.7750    2.8860    1.9090 C   0  0  0  0  0
    3.5240   -1.1250   -0.2970 C   0  0  0  0  0
    4.0060   -1.9820    0.8450 C   0  0  0  0  0
   -5.0280    0.9800   -0.3260 C   0  0  0  0  0
   -1.8530    0.7220    1.2580 F   0  0  0  0  0
   -6.7990    0.6460    1.1670 O   0  0  0  0  0
   -0.8840   -2.4110   -0.2650 O   0  0  0  0  0
    2.9310    0.7040    1.2070 O   0  0  0  0  0
    3.1320    2.2820   -0.3090 O   0  0  0  0  0
    4.9490   -2.9390    0.3590 O   0  0  0  0  0
    3.8720   -1.3740   -1.4260 O   0  0  0  0  0
   -5.4640   -1.3460    2.2690 H   0  0  0  0  0
   -3.3510   -2.0690    1.4730 H   0  0  0  0  0
   -3.9950   -1.8030   -1.7490 H   0  0  0  0  0
   -2.3060   -1.3210   -2.0390 H   0  0  0  0  0
   -2.6750   -2.6040   -0.8630 H   0  0  0  0  0
   -3.0970    0.7070   -2.7560 H   0  0  0  0  0
   -3.7330    2.2400   -2.1050 H   0  0  0  0  0
   -1.2180    2.2020   -2.2400 H   0  0  0  0  0
   -1.8210    2.4310   -0.5820 H   0  0  0  0  0
   -0.9680   -0.2460   -1.7770 H   0  0  0  0  0
   -1.4050   -1.7860    1.6290 H   0  0  0  0  0
    0.5270   -0.2590    1.8930 H   0  0  0  0  0
    1.0850   -1.8860    1.4180 H   0  0  0  0  0
   -0.0100   -1.4690   -1.6270 H   0  0  0  0  0
    1.6490   -1.0820   -2.1450 H   0  0  0  0  0
    1.3630   -2.4000   -0.9820 H   0  0  0  0  0
    0.3900    1.5330    0.3100 H   0  0  0  0  0
    1.1450    0.8860   -2.5920 H   0  0  0  0  0
    1.1390    2.4880   -1.7880 H   0  0  0  0  0
    3.4560    0.9450   -1.9210 H   0  0  0  0  0
    5.1760    0.5600   -0.2290 H   0  0  0  0  0
    5.8040    2.1680    0.2020 H   0  0  0  0  0
    5.6250    0.9180    1.4560 H   0  0  0  0  0
    4.1560    2.4600    2.8380 H   0  0  0  0  0
    4.4130    3.7140    1.6010 H   0  0  0  0  0
    2.7600    3.2480    2.0660 H   0  0  0  0  0
    4.4830   -1.3510    1.5960 H   0  0  0  0  0
    3.1580   -2.5010    1.2930 H   0  0  0  0  0
   -5.4960    1.8410   -0.7810 H   0  0  0  0  0
   -0.3970   -3.2060   -0.0060 H   0  0  0  0  0
    5.3010   -3.5260    1.0410 H   0  0  0  0  0
  1 26  2  0  0  0
  1  2  1  0  0  0
  2 32  1  0  0  0
  3  2  2  0  0  0
  3 33  1  0  0  0
  4  5  1  0  0  0
  4  3  1  0  0  0
  5 34  1  0  0  0
  5 35  1  0  0  0
  5 36  1  0  0  0
  6 24  2  0  0  0
  6  4  1  0  0  0
  7  6  1  0  0  0
  7 37  1  0  0  0
  7 38  1  0  0  0
  8  7  1  0  0  0
  8  9  1  0  0  0
  8 39  1  0  0  0
  8 40  1  0  0  0
  9 10  1  0  0  0
  9 41  1  0  0  0
 10  4  1  0  0  0
 10 11  1  0  0  0
 11 27  1  0  0  0
 11 42  1  0  0  0
 12 11  1  0  0  0
 12 43  1  0  0  0
 12 44  1  0  0  0
 13 14  1  0  0  0
 13 12  1  0  0  0
 14 45  1  0  0  0
 14 46  1  0  0  0
 14 47  1  0  0  0
 15  9  1  0  0  0
 15 13  1  0  0  0
 15 48  1  0  0  0
 16 15  1  0  0  0
 16 49  1  0  0  0
 16 50  1  0  0  0
 17 16  1  0  0  0
 17 18  1  0  0  0
 17 51  1  0  0  0
 18 22  1  0  0  0
 18 13  1  0  0  0
 19 28  1  0  0  0
 20 19  1  0  0  0
 20 52  1  0  0  0
 20 53  1  0  0  0
 20 54  1  0  0  0
 21 19  1  0  0  0
 21 55  1  0  0  0
 21 56  1  0  0  0
 21 57  1  0  0  0
 22 23  1  0  0  0
 23 30  1  0  0  0
 23 58  1  0  0  0
 23 59  1  0  0  0
 24  1  1  0  0  0
 24 60  1  0  0  0
 25 10  1  0  0  0
 27 61  1  0  0  0
 28 18  1  0  0  0
 29 17  1  0  0  0
 29 19  1  0  0  0
 30 62  1  0  0  0
 31 22  2  0  0  0
M  END
$$$$
