MOF
  CCTOOLS-0919241035

 65 69  0  0  1  0  0  0  0  0999 V2000
    1.6730    0.7160   -7.3180 O   0  0  0  0  0
    1.0810    0.6290   -6.2580 C   0  0  0  0  0
    0.8110    1.8270   -5.4450 C   0  0  0  0  0
    0.6190   -0.6750   -5.7600 C   0  0  0  0  0
   -0.0630   -0.7600   -4.6270 C   0  0  0  0  0
   -0.5040   -2.1260   -4.1350 C   0  0  0  0  0
   -0.4280    0.4360   -3.8000 C   0  0  0  0  0
    0.1220    1.7190   -4.3210 C   0  0  0  0  0
   -1.9540    0.5510   -3.7890 C   0  0  0  0  0
   -0.0050    0.2170   -2.3450 C   0  0  0  0  0
    1.7920    0.1130   -2.2590 CL  0  0  0  0  0
   -0.4610    1.4050   -1.5030 C   0  0  0  0  0
   -1.8650    1.5960   -1.6880 O   0  0  0  0  0
   -0.5940   -1.1120   -1.8480 C   0  0  0  0  0
   -0.0520   -2.2770   -2.6780 C   0  0  0  0  0
   -0.1820   -1.2770   -0.3960 C   0  0  0  0  0
   -0.7330   -2.5160    0.3160 C   0  0  0  0  0
   -0.6430   -2.1230    1.8160 C   0  0  0  0  0
    0.6560   -2.6570    2.4220 C   0  0  0  0  0
   -0.8360   -0.1280    0.4160 C   0  0  0  0  0
   -0.1790    1.1840   -0.0090 C   0  0  0  0  0
   -2.3220   -0.1060    0.0520 C   0  0  0  0  0
   -0.6550   -0.5740    1.8640 C   0  0  0  0  0
   -1.8240   -0.1220    2.7010 C   0  0  0  0  0
   -2.7440   -0.8750    2.9100 O   0  0  0  0  0
   -1.8440    1.2700    3.2760 C   0  0  0  0  0
   -3.2870    1.4600    4.3410 CL  0  0  0  0  0
    0.5850   -0.0440    2.4030 O   0  0  0  0  0
    0.8950   -0.2410    3.7010 C   0  0  0  0  0
    0.0950   -0.7780    4.4430 O   0  0  0  0  0
    2.1950    0.1920    4.2160 C   0  0  0  0  0
    2.6330    0.0600    5.5040 C   0  0  0  0  0
    3.9260    0.6050    5.5480 C   0  0  0  0  0
    4.2130    1.0490    4.3040 C   0  0  0  0  0
    3.1690    0.7980    3.5050 O   0  0  0  0  0
    1.1750    2.7920   -5.7670 H   0  0  0  0  0
    0.8380   -1.5710   -6.3220 H   0  0  0  0  0
   -0.0440   -2.9030   -4.7450 H   0  0  0  0  0
   -1.5890   -2.2050   -4.1930 H   0  0  0  0  0
   -0.0520    2.6160   -3.7460 H   0  0  0  0  0
   -2.2400    1.5650   -3.5090 H   0  0  0  0  0
   -2.3420    0.3240   -4.7810 H   0  0  0  0  0
   -2.3660   -0.1540   -3.0670 H   0  0  0  0  0
    0.0650    2.2990   -1.8360 H   0  0  0  0  0
   -2.1180    2.3530   -1.1430 H   0  0  0  0  0
   -1.6810   -1.0830   -1.9210 H   0  0  0  0  0
    1.0360   -2.2770   -2.6350 H   0  0  0  0  0
   -0.4310   -3.2160   -2.2760 H   0  0  0  0  0
    0.9030   -1.2380   -0.3040 H   0  0  0  0  0
   -0.1140   -3.3890    0.1090 H   0  0  0  0  0
   -1.7680   -2.6990    0.0270 H   0  0  0  0  0
   -1.5000   -2.5200    2.3600 H   0  0  0  0  0
    0.7420   -3.7230    2.2130 H   0  0  0  0  0
    1.5040   -2.1310    1.9840 H   0  0  0  0  0
    0.6470   -2.4970    3.5000 H   0  0  0  0  0
    0.8930    1.0810    0.1550 H   0  0  0  0  0
   -0.5650    2.0230    0.5690 H   0  0  0  0  0
   -2.4300   -0.0840   -1.0320 H   0  0  0  0  0
   -2.8060   -1.0000    0.4470 H   0  0  0  0  0
   -2.7890    0.7790    0.4820 H   0  0  0  0  0
   -0.9380    1.4350    3.8590 H   0  0  0  0  0
   -1.8920    1.9970    2.4660 H   0  0  0  0  0
    2.0920   -0.3830    6.3270 H   0  0  0  0  0
    4.5680    0.6630    6.4140 H   0  0  0  0  0
    5.1340    1.5260    4.0040 H   0  0  0  0  0
  1  2  2  0  0  0
  2  3  1  0  0  0
  2  4  1  0  0  0
  3  8  2  0  0  0
  3 36  1  0  0  0
  4  5  2  0  0  0
  4 37  1  0  0  0
  5  6  1  0  0  0
  5  7  1  0  0  0
  6 15  1  0  0  0
  6 38  1  0  0  0
  6 39  1  0  0  0
  7  8  1  0  0  0
  7  9  1  0  0  0
  7 10  1  0  0  0
  8 40  1  0  0  0
  9 41  1  0  0  0
  9 42  1  0  0  0
  9 43  1  0  0  0
 10 11  1  0  0  0
 10 12  1  0  0  0
 10 14  1  0  0  0
 12 13  1  0  0  0
 12 21  1  0  0  0
 12 44  1  0  0  0
 13 45  1  0  0  0
 14 15  1  0  0  0
 14 16  1  0  0  0
 14 46  1  0  0  0
 15 47  1  0  0  0
 15 48  1  0  0  0
 16 17  1  0  0  0
 16 20  1  0  0  0
 16 49  1  0  0  0
 17 18  1  0  0  0
 17 50  1  0  0  0
 17 51  1  0  0  0
 18 19  1  0  0  0
 18 23  1  0  0  0
 18 52  1  0  0  0
 19 53  1  0  0  0
 19 54  1  0  0  0
 19 55  1  0  0  0
 20 21  1  0  0  0
 20 22  1  0  0  0
 20 23  1  0  0  0
 21 56  1  0  0  0
 21 57  1  0  0  0
 22 58  1  0  0  0
 22 59  1  0  0  0
 22 60  1  0  0  0
 23 24  1  0  0  0
 23 28  1  0  0  0
 24 25  2  0  0  0
 24 26  1  0  0  0
 26 27  1  0  0  0
 26 61  1  0  0  0
 26 62  1  0  0  0
 28 29  1  0  0  0
 29 30  2  0  0  0
 29 31  1  0  0  0
 31 32  2  0  0  0
 31 35  1  0  0  0
 32 33  1  0  0  0
 32 63  1  0  0  0
 33 34  2  0  0  0
 33 64  1  0  0  0
 34 35  1  0  0  0
 34 65  1  0  0  0
M  END
$$$$
