1UN
  CCTOOLS-0919241035

 85 88  0  0  1  0  0  0  0  0999 V2000
   -1.9540   -2.1510   -4.0310 C   0  0  0  0  0
   -1.1010   -1.8080   -5.2550 C   0  0  0  0  0
   -1.9120   -2.0130   -6.5330 C   0  0  0  0  0
   -3.1780   -1.1550   -6.5070 C   0  0  0  0  0
   -4.0260   -1.5440   -5.2940 C   0  0  0  0  0
   -3.2240   -1.2980   -4.0150 C   0  0  0  0  0
   -0.8230   -0.4230   -2.7140 N   0  0  0  0  0
    0.0730   -0.1290   -3.8360 C   0  0  0  0  0
   -0.6690   -0.3440   -5.1370 C   0  0  0  0  0
   -1.1400   -1.8540   -2.7660 C   0  0  0  0  0
    0.5140    1.3090   -3.7440 C   0  0  0  0  0
    1.7160    1.6780   -4.2310 N   0  0  0  0  0
    2.1440    3.0760   -4.1410 C   0  0  0  0  0
    3.5340    3.2240   -4.7630 C   0  0  0  0  0
    1.1510    3.9630   -4.8950 C   0  0  0  0  0
    2.1940    3.5010   -2.6720 C   0  0  0  0  0
   -0.2110    2.1340   -3.2310 O   0  0  0  0  0
   -0.0460   -0.2070   -1.4850 C   0  0  0  0  0
   -0.9410   -0.4510   -0.2680 C   0  0  0  0  0
   -0.2260    0.0340    0.9940 C   0  0  0  0  0
   -1.2160   -1.8480   -0.1510 O   0  0  0  0  0
   -1.0820   -0.1980    2.1600 N   0  0  0  0  0
    1.0860   -0.7320    1.1640 C   0  0  0  0  0
   -1.0040    0.6200    3.2270 C   0  0  0  0  0
   -0.2230    1.5510    3.2230 O   0  0  0  0  0
   -1.8680    0.3840    4.4040 C   0  0  0  0  0
   -2.6100   -0.7930    4.5040 C   0  0  0  0  0
   -3.4160   -1.0090    5.6030 C   0  0  0  0  0
   -3.4860   -0.0650    6.6110 C   0  0  0  0  0
   -2.7460    1.1050    6.5240 C   0  0  0  0  0
   -1.9350    1.3330    5.4240 C   0  0  0  0  0
   -2.8180    2.0300    7.5180 O   0  0  0  0  0
   -1.1310    2.6040    5.3280 C   0  0  0  0  0
    1.9330   -0.1560    2.6610 S   0  0  0  0  0
    3.3690   -1.1760    2.6120 C   0  0  0  0  0
    4.3340   -1.0680    3.6060 C   0  0  0  0  0
    5.4580   -1.8690    3.5640 C   0  0  0  0  0
    5.6240   -2.7770    2.5340 C   0  0  0  0  0
    4.6660   -2.8860    1.5420 C   0  0  0  0  0
    3.5370   -2.0930    1.5810 C   0  0  0  0  0
   -2.2220   -3.2080   -4.0550 H   0  0  0  0  0
   -0.2170   -2.4440   -5.2820 H   0  0  0  0  0
   -2.1890   -3.0650   -6.6080 H   0  0  0  0  0
   -1.3050   -1.7370   -7.3950 H   0  0  0  0  0
   -3.7500   -1.3210   -7.4190 H   0  0  0  0  0
   -2.9030   -0.1030   -6.4360 H   0  0  0  0  0
   -4.2920   -2.5990   -5.3590 H   0  0  0  0  0
   -4.9340   -0.9400   -5.2760 H   0  0  0  0  0
   -3.8300   -1.5660   -3.1500 H   0  0  0  0  0
   -2.9530   -0.2440   -3.9550 H   0  0  0  0  0
    0.9480   -0.7780   -3.8070 H   0  0  0  0  0
   -0.0090   -0.0910   -5.9670 H   0  0  0  0  0
   -1.5490    0.2980   -5.1610 H   0  0  0  0  0
   -0.2160   -2.4310   -2.7850 H   0  0  0  0  0
   -1.7230   -2.1290   -1.8870 H   0  0  0  0  0
    2.2960    1.0180   -4.6410 H   0  0  0  0  0
    3.8530    4.2640   -4.6960 H   0  0  0  0  0
    4.2420    2.5920   -4.2260 H   0  0  0  0  0
    3.4980    2.9210   -5.8100 H   0  0  0  0  0
    1.1150    3.6600   -5.9420 H   0  0  0  0  0
    0.1610    3.8570   -4.4520 H   0  0  0  0  0
    1.4700    5.0030   -4.8280 H   0  0  0  0  0
    2.9020    2.8690   -2.1350 H   0  0  0  0  0
    2.5130    4.5410   -2.6060 H   0  0  0  0  0
    1.2040    3.3950   -2.2290 H   0  0  0  0  0
    0.3230    0.8170   -1.4650 H   0  0  0  0  0
    0.7950   -0.8990   -1.4620 H   0  0  0  0  0
   -1.8760    0.0950   -0.3890 H   0  0  0  0  0
   -0.0160    1.1000    0.9050 H   0  0  0  0  0
   -0.3650   -2.2930   -0.0460 H   0  0  0  0  0
   -1.7050   -0.9420    2.1630 H   0  0  0  0  0
    0.8760   -1.7970    1.2530 H   0  0  0  0  0
    1.7230   -0.5580    0.2960 H   0  0  0  0  0
   -2.5580   -1.5330    3.7190 H   0  0  0  0  0
   -3.9930   -1.9190    5.6760 H   0  0  0  0  0
   -4.1180   -0.2400    7.4690 H   0  0  0  0  0
   -3.5380    2.6330    7.2870 H   0  0  0  0  0
   -0.1100    2.4150    5.6590 H   0  0  0  0  0
   -1.1200    2.9490    4.2940 H   0  0  0  0  0
   -1.5830    3.3680    5.9610 H   0  0  0  0  0
    4.2050   -0.3590    4.4100 H   0  0  0  0  0
    6.2090   -1.7860    4.3360 H   0  0  0  0  0
    6.5050   -3.4020    2.5030 H   0  0  0  0  0
    4.8000   -3.5960    0.7390 H   0  0  0  0  0
    2.7890   -2.1790    0.8070 H   0  0  0  0  0
  1  2  1  0  0  0
  1  6  1  0  0  0
  1 10  1  0  0  0
  1 41  1  0  0  0
  2  3  1  0  0  0
  2  9  1  0  0  0
  2 42  1  0  0  0
  3  4  1  0  0  0
  3 43  1  0  0  0
  3 44  1  0  0  0
  4  5  1  0  0  0
  4 45  1  0  0  0
  4 46  1  0  0  0
  5  6  1  0  0  0
  5 47  1  0  0  0
  5 48  1  0  0  0
  6 49  1  0  0  0
  6 50  1  0  0  0
  7  8  1  0  0  0
  7 10  1  0  0  0
  7 18  1  0  0  0
  8  9  1  0  0  0
  8 11  1  0  0  0
  8 51  1  0  0  0
  9 52  1  0  0  0
  9 53  1  0  0  0
 10 54  1  0  0  0
 10 55  1  0  0  0
 11 12  1  0  0  0
 11 17  2  0  0  0
 12 13  1  0  0  0
 12 56  1  0  0  0
 13 14  1  0  0  0
 13 15  1  0  0  0
 13 16  1  0  0  0
 14 57  1  0  0  0
 14 58  1  0  0  0
 14 59  1  0  0  0
 15 60  1  0  0  0
 15 61  1  0  0  0
 15 62  1  0  0  0
 16 63  1  0  0  0
 16 64  1  0  0  0
 16 65  1  0  0  0
 18 19  1  0  0  0
 18 66  1  0  0  0
 18 67  1  0  0  0
 19 20  1  0  0  0
 19 21  1  0  0  0
 19 68  1  0  0  0
 20 22  1  0  0  0
 20 23  1  0  0  0
 20 69  1  0  0  0
 21 70  1  0  0  0
 22 24  1  0  0  0
 22 71  1  0  0  0
 23 34  1  0  0  0
 23 72  1  0  0  0
 23 73  1  0  0  0
 24 25  2  0  0  0
 24 26  1  0  0  0
 26 27  2  0  0  0
 26 31  1  0  0  0
 27 28  1  0  0  0
 27 74  1  0  0  0
 28 29  2  0  0  0
 28 75  1  0  0  0
 29 30  1  0  0  0
 29 76  1  0  0  0
 30 31  2  0  0  0
 30 32  1  0  0  0
 31 33  1  0  0  0
 32 77  1  0  0  0
 33 78  1  0  0  0
 33 79  1  0  0  0
 33 80  1  0  0  0
 34 35  1  0  0  0
 35 36  2  0  0  0
 35 40  1  0  0  0
 36 37  1  0  0  0
 36 81  1  0  0  0
 37 38  2  0  0  0
 37 82  1  0  0  0
 38 39  1  0  0  0
 38 83  1  0  0  0
 39 40  2  0  0  0
 39 84  1  0  0  0
 40 85  1  0  0  0
M  END
$$$$
